<?xml version="1.0" encoding="UTF-8"?>
<nodes>
   <node id="0" x="0.0" y="0.0"  type="traffic_light"/>

   <node id="1" x="-100.0" y="0.0" type="priority"/>
   <node id="2" x="+100.0" y="0.0" type="priority"/>
   <node id="3" x="0.0" y="-100.0" type="priority"/>
   <node id="4" x="0.0" y="+100.0" type="priority"/>
   
   <node id="51" x="-510.0" y="0.0" type="priority"/>
   <node id="52" x="+510.0" y="0.0" type="priority"/>
   <node id="53" x="0.0" y="-510.0" type="priority"/>
   <node id="54" x="0.0" y="+510.0" type="priority"/> 

   <node id="F1" x="-100.0" y="+100.0" type="priority"/>
   <node id="F2" x="+100.0" y="+100.0" type="priority"/>
   <node id="F3" x="+100.0" y="-100.0" type="priority"/>
   <node id="F4" x="-100.0" y="-100.0" type="priority"/> 

   <node id="P1" x="-130.0" y="+100.0" type="priority"/>
   <node id="P2" x="+130.0" y="+100.0" type="priority"/>
   <node id="P3" x="+130.0" y="-100.0" type="priority"/>
   <node id="P4" x="-130.0" y="-100.0" type="priority"/>
</nodes>
