<?xml version="1.0" encoding="UTF-8"?>
<edges xmlns:xsi="http://www.w3.org/2001/XMLSchema-instance" xsi:noNamespaceSchemaLocation="http://sumo.dlr.de/xsd/edges_file.xsd">
   <edge id="1i" from="1" to="0" priority="78" numLanes="3" speed="19.444" />
   <edge id="1o" from="0" to="1" priority="46" numLanes="3" speed="19.444" />

   <edge id="2i" from="2" to="0" priority="78" numLanes="3" speed="19.444" />
   <edge id="2o" from="0" to="2" priority="46" numLanes="3" speed="19.444" />

   <edge id="3i" from="3" to="0" priority="78" numLanes="3" speed="19.444" />
   <edge id="3o" from="0" to="3" priority="46" numLanes="3" speed="19.444" />

   <edge id="4i" from="4" to="0" priority="78" numLanes="3" speed="19.444" />
   <edge id="4o" from="0" to="4" priority="46" numLanes="3" speed="19.444" />

   <edge id="51i" from="1" to="51" priority="78" numLanes="3" speed="19.444" />
   <edge id="51o" from="51" to="1" priority="46" numLanes="3" speed="19.444" />

   <edge id="52i" from="2" to="52" priority="78" numLanes="3" speed="19.444" />
   <edge id="52o" from="52" to="2" priority="46" numLanes="3" speed="19.444" />

   <edge id="53i" from="3" to="53" priority="78" numLanes="3" speed="19.444" />
   <edge id="53o" from="53" to="3" priority="46" numLanes="3" speed="19.444" />

   <edge id="54i" from="4" to="54" priority="78" numLanes="3" speed="19.444" />
   <edge id="54o" from="54" to="4" priority="46" numLanes="3" speed="19.444" />

   <edge id="F1a" from="F1" to="1" priority="78" numLanes="1" speed="19.444" />
   <edge id="F1b" from="1" to="F1" priority="46" numLanes="1" speed="19.444" />
   <edge id="F1c" from="F1" to="4" priority="78" numLanes="1" speed="19.444" />
   <edge id="F1d" from="4" to="F1" priority="46" numLanes="1" speed="19.444" />
   <edge id="P1i" from="F1" to="P1" priority="78" numLanes="1" speed="19.444" />
   <edge id="P1o" from="P1" to="F1" priority="46" numLanes="1" speed="19.444" />

   <edge id="F2a" from="F2" to="2" priority="78" numLanes="1" speed="19.444" />
   <edge id="F2b" from="2" to="F2" priority="46" numLanes="1" speed="19.444" />
   <edge id="F2c" from="F2" to="4" priority="78" numLanes="1" speed="19.444" />
   <edge id="F2d" from="4" to="F2" priority="46" numLanes="1" speed="19.444" />
   <edge id="P2i" from="F2" to="P2" priority="78" numLanes="1" speed="19.444" />
   <edge id="P2o" from="P2" to="F2" priority="46" numLanes="1" speed="19.444" />

   <edge id="F3a" from="F3" to="2" priority="78" numLanes="1" speed="19.444" />
   <edge id="F3b" from="2" to="F3" priority="46" numLanes="1" speed="19.444" />
   <edge id="F3c" from="F3" to="3" priority="78" numLanes="1" speed="19.444" />
   <edge id="F3d" from="3" to="F3" priority="46" numLanes="1" speed="19.444" />
   <edge id="P3i" from="F3" to="P3" priority="78" numLanes="1" speed="19.444" />
   <edge id="P3o" from="P3" to="F3" priority="46" numLanes="1" speed="19.444" />

   <edge id="F4a" from="F4" to="1" priority="78" numLanes="1" speed="19.444" />
   <edge id="F4b" from="1" to="F4" priority="46" numLanes="1" speed="19.444" />
   <edge id="F4c" from="F4" to="3" priority="78" numLanes="1" speed="19.444" />
   <edge id="F4d" from="3" to="F4" priority="46" numLanes="1" speed="19.444" />
   <edge id="P4i" from="F4" to="P4" priority="78" numLanes="1" speed="19.444" />
   <edge id="P4o" from="P4" to="F4" priority="46" numLanes="1" speed="19.444" />
</edges>
