<?xml version="1.0" encoding="UTF-8"?>

<!-- generated on 2022-09-15 16:46:40 by Eclipse SUMO netedit Version 1.14.1
<configuration xmlns:xsi="http://www.w3.org/2001/XMLSchema-instance" xsi:noNamespaceSchemaLocation="http://sumo.dlr.de/xsd/netconvertConfiguration.xsd">

    <input>
        <node-files value="/home/lwh/Documents/Code/PredM/SUMO/traci_tls/data/cross.nod.xml"/>
        <edge-files value="/home/lwh/Documents/Code/PredM/SUMO/traci_tls/data/cross.edg.xml"/>
        <connection-files value="/home/lwh/Documents/Code/PredM/SUMO/traci_tls/data/cross.con.xml"/>
    </input>

    <output>
        <output-file value="/home/lwh/Documents/Code/PredM/SUMO/traci_tls/data/cross.net.xml"/>
    </output>

    <processing>
        <offset.disable-normalization value="true"/>
    </processing>

    <junctions>
        <no-turnarounds value="true"/>
    </junctions>

    <report>
        <verbose value="true"/>
    </report>

</configuration>
-->

<net version="1.9" junctionCornerDetail="5" limitTurnSpeed="5.50" xmlns:xsi="http://www.w3.org/2001/XMLSchema-instance" xsi:noNamespaceSchemaLocation="http://sumo.dlr.de/xsd/net_file.xsd">

    <location netOffset="0.00,0.00" convBoundary="-510.00,-510.00,510.00,510.00" origBoundary="-510.00,-510.00,510.00,510.00" projParameter="!"/>

    <edge id=":0_0" function="internal">
        <lane id=":0_0_0" index="0" speed="6.51" length="9.03" shape="-8.00,13.60 -8.35,11.15 -9.40,9.40 -11.15,8.35 -13.60,8.00"/>
    </edge>
    <edge id=":0_1" function="internal">
        <lane id=":0_1_0" index="0" speed="19.44" length="27.20" shape="-8.00,13.60 -8.00,-13.60"/>
        <lane id=":0_1_1" index="1" speed="19.44" length="27.20" shape="-4.80,13.60 -4.80,-13.60"/>
        <lane id=":0_1_2" index="2" speed="19.44" length="27.20" shape="-1.60,13.60 -1.60,-13.60"/>
    </edge>
    <edge id=":0_4" function="internal">
        <lane id=":0_4_0" index="0" speed="10.36" length="5.01" shape="-1.60,13.60 -0.89,8.64"/>
    </edge>
    <edge id=":0_5" function="internal">
        <lane id=":0_5_0" index="0" speed="3.65" length="1.44" shape="-1.60,13.60 -0.80,12.40"/>
    </edge>
    <edge id=":0_24" function="internal">
        <lane id=":0_24_0" index="0" speed="10.36" length="19.50" shape="-0.89,8.64 -0.65,6.95 2.20,2.20 6.95,-0.65 13.60,-1.60"/>
    </edge>
    <edge id=":0_25" function="internal">
        <lane id=":0_25_0" index="0" speed="3.65" length="3.23" shape="-0.80,12.40 0.00,12.00 0.80,12.40 1.60,13.60"/>
    </edge>
    <edge id=":0_6" function="internal">
        <lane id=":0_6_0" index="0" speed="6.51" length="9.03" shape="13.60,8.00 11.15,8.35 9.40,9.40 8.35,11.15 8.00,13.60"/>
    </edge>
    <edge id=":0_7" function="internal">
        <lane id=":0_7_0" index="0" speed="19.44" length="27.20" shape="13.60,8.00 -13.60,8.00"/>
        <lane id=":0_7_1" index="1" speed="19.44" length="27.20" shape="13.60,4.80 -13.60,4.80"/>
        <lane id=":0_7_2" index="2" speed="19.44" length="27.20" shape="13.60,1.60 -13.60,1.60"/>
    </edge>
    <edge id=":0_10" function="internal">
        <lane id=":0_10_0" index="0" speed="10.36" length="5.01" shape="13.60,1.60 8.64,0.89"/>
    </edge>
    <edge id=":0_11" function="internal">
        <lane id=":0_11_0" index="0" speed="3.65" length="1.44" shape="13.60,1.60 12.40,0.80"/>
    </edge>
    <edge id=":0_26" function="internal">
        <lane id=":0_26_0" index="0" speed="10.36" length="19.50" shape="8.64,0.89 6.95,0.65 2.20,-2.20 -0.65,-6.95 -1.60,-13.60"/>
    </edge>
    <edge id=":0_27" function="internal">
        <lane id=":0_27_0" index="0" speed="3.65" length="3.23" shape="12.40,0.80 12.00,0.00 12.40,-0.80 13.60,-1.60"/>
    </edge>
    <edge id=":0_12" function="internal">
        <lane id=":0_12_0" index="0" speed="6.51" length="9.03" shape="8.00,-13.60 8.35,-11.15 9.40,-9.40 11.15,-8.35 13.60,-8.00"/>
    </edge>
    <edge id=":0_13" function="internal">
        <lane id=":0_13_0" index="0" speed="19.44" length="27.20" shape="8.00,-13.60 8.00,13.60"/>
        <lane id=":0_13_1" index="1" speed="19.44" length="27.20" shape="4.80,-13.60 4.80,13.60"/>
        <lane id=":0_13_2" index="2" speed="19.44" length="27.20" shape="1.60,-13.60 1.60,13.60"/>
    </edge>
    <edge id=":0_16" function="internal">
        <lane id=":0_16_0" index="0" speed="10.36" length="5.01" shape="1.60,-13.60 0.89,-8.64"/>
    </edge>
    <edge id=":0_17" function="internal">
        <lane id=":0_17_0" index="0" speed="3.65" length="1.44" shape="1.60,-13.60 0.80,-12.40"/>
    </edge>
    <edge id=":0_28" function="internal">
        <lane id=":0_28_0" index="0" speed="10.36" length="19.50" shape="0.89,-8.64 0.65,-6.95 -2.20,-2.20 -6.95,0.65 -13.60,1.60"/>
    </edge>
    <edge id=":0_29" function="internal">
        <lane id=":0_29_0" index="0" speed="3.65" length="3.23" shape="0.80,-12.40 0.00,-12.00 -0.80,-12.40 -1.60,-13.60"/>
    </edge>
    <edge id=":0_18" function="internal">
        <lane id=":0_18_0" index="0" speed="6.51" length="9.03" shape="-13.60,-8.00 -11.15,-8.35 -9.40,-9.40 -8.35,-11.15 -8.00,-13.60"/>
    </edge>
    <edge id=":0_19" function="internal">
        <lane id=":0_19_0" index="0" speed="19.44" length="27.20" shape="-13.60,-8.00 13.60,-8.00"/>
        <lane id=":0_19_1" index="1" speed="19.44" length="27.20" shape="-13.60,-4.80 13.60,-4.80"/>
        <lane id=":0_19_2" index="2" speed="19.44" length="27.20" shape="-13.60,-1.60 13.60,-1.60"/>
    </edge>
    <edge id=":0_22" function="internal">
        <lane id=":0_22_0" index="0" speed="10.36" length="5.01" shape="-13.60,-1.60 -8.64,-0.89"/>
    </edge>
    <edge id=":0_23" function="internal">
        <lane id=":0_23_0" index="0" speed="3.65" length="1.44" shape="-13.60,-1.60 -12.40,-0.80"/>
    </edge>
    <edge id=":0_30" function="internal">
        <lane id=":0_30_0" index="0" speed="10.36" length="19.50" shape="-8.64,-0.89 -6.95,-0.65 -2.20,2.20 0.65,6.95 1.60,13.60"/>
    </edge>
    <edge id=":0_31" function="internal">
        <lane id=":0_31_0" index="0" speed="3.65" length="3.23" shape="-12.40,-0.80 -12.00,0.00 -12.40,0.80 -13.60,1.60"/>
    </edge>
    <edge id=":1_0" function="internal">
        <lane id=":1_0_0" index="0" speed="6.51" length="9.03" shape="-101.60,13.60 -101.95,11.15 -103.00,9.40 -104.75,8.35 -107.20,8.00"/>
    </edge>
    <edge id=":1_1" function="internal">
        <lane id=":1_1_0" index="0" speed="19.44" length="27.20" shape="-101.60,13.60 -101.60,-13.60"/>
    </edge>
    <edge id=":1_2" function="internal">
        <lane id=":1_2_0" index="0" speed="9.32" length="7.05" shape="-101.60,13.60 -101.05,6.95 -100.92,6.59"/>
    </edge>
    <edge id=":1_3" function="internal">
        <lane id=":1_3_0" index="0" speed="3.65" length="1.44" shape="-101.60,13.60 -100.80,12.40"/>
    </edge>
    <edge id=":1_18" function="internal">
        <lane id=":1_18_0" index="0" speed="9.32" length="12.57" shape="-100.92,6.59 -99.40,2.20 -96.65,-0.65 -92.80,-1.60"/>
    </edge>
    <edge id=":1_19" function="internal">
        <lane id=":1_19_0" index="0" speed="3.65" length="3.23" shape="-100.80,12.40 -100.00,12.00 -99.20,12.40 -98.40,13.60"/>
    </edge>
    <edge id=":1_4" function="internal">
        <lane id=":1_4_0" index="0" speed="6.51" length="9.03" shape="-92.80,8.00 -95.25,8.35 -97.00,9.40 -98.05,11.15 -98.40,13.60"/>
    </edge>
    <edge id=":1_5" function="internal">
        <lane id=":1_5_0" index="0" speed="19.44" length="14.40" shape="-92.80,8.00 -107.20,8.00"/>
        <lane id=":1_5_1" index="1" speed="19.44" length="14.40" shape="-92.80,4.80 -107.20,4.80"/>
        <lane id=":1_5_2" index="2" speed="19.44" length="14.40" shape="-92.80,1.60 -107.20,1.60"/>
    </edge>
    <edge id=":1_8" function="internal">
        <lane id=":1_8_0" index="0" speed="9.32" length="19.63" shape="-92.80,1.60 -96.65,0.65 -99.40,-2.20 -101.05,-6.95 -101.60,-13.60"/>
    </edge>
    <edge id=":1_9" function="internal">
        <lane id=":1_9_0" index="0" speed="6.51" length="9.03" shape="-98.40,-13.60 -98.05,-11.15 -97.00,-9.40 -95.25,-8.35 -92.80,-8.00"/>
    </edge>
    <edge id=":1_10" function="internal">
        <lane id=":1_10_0" index="0" speed="19.44" length="27.20" shape="-98.40,-13.60 -98.40,13.60"/>
    </edge>
    <edge id=":1_11" function="internal">
        <lane id=":1_11_0" index="0" speed="9.32" length="7.05" shape="-98.40,-13.60 -98.95,-6.95 -99.08,-6.59"/>
    </edge>
    <edge id=":1_12" function="internal">
        <lane id=":1_12_0" index="0" speed="3.65" length="1.44" shape="-98.40,-13.60 -99.20,-12.40"/>
    </edge>
    <edge id=":1_20" function="internal">
        <lane id=":1_20_0" index="0" speed="9.32" length="12.57" shape="-99.08,-6.59 -100.60,-2.20 -103.35,0.65 -107.20,1.60"/>
    </edge>
    <edge id=":1_21" function="internal">
        <lane id=":1_21_0" index="0" speed="3.65" length="3.23" shape="-99.20,-12.40 -100.00,-12.00 -100.80,-12.40 -101.60,-13.60"/>
    </edge>
    <edge id=":1_13" function="internal">
        <lane id=":1_13_0" index="0" speed="6.51" length="9.03" shape="-107.20,-8.00 -104.75,-8.35 -103.00,-9.40 -101.95,-11.15 -101.60,-13.60"/>
    </edge>
    <edge id=":1_14" function="internal">
        <lane id=":1_14_0" index="0" speed="19.44" length="14.40" shape="-107.20,-8.00 -92.80,-8.00"/>
        <lane id=":1_14_1" index="1" speed="19.44" length="14.40" shape="-107.20,-4.80 -92.80,-4.80"/>
        <lane id=":1_14_2" index="2" speed="19.44" length="14.40" shape="-107.20,-1.60 -92.80,-1.60"/>
    </edge>
    <edge id=":1_17" function="internal">
        <lane id=":1_17_0" index="0" speed="9.32" length="19.63" shape="-107.20,-1.60 -103.35,-0.65 -100.60,2.20 -98.95,6.95 -98.40,13.60"/>
    </edge>
    <edge id=":2_0" function="internal">
        <lane id=":2_0_0" index="0" speed="6.51" length="9.03" shape="98.40,13.60 98.05,11.15 97.00,9.40 95.25,8.35 92.80,8.00"/>
    </edge>
    <edge id=":2_1" function="internal">
        <lane id=":2_1_0" index="0" speed="19.44" length="27.20" shape="98.40,13.60 98.40,-13.60"/>
    </edge>
    <edge id=":2_2" function="internal">
        <lane id=":2_2_0" index="0" speed="9.32" length="7.05" shape="98.40,13.60 98.95,6.95 99.08,6.59"/>
    </edge>
    <edge id=":2_3" function="internal">
        <lane id=":2_3_0" index="0" speed="3.65" length="1.44" shape="98.40,13.60 99.20,12.40"/>
    </edge>
    <edge id=":2_18" function="internal">
        <lane id=":2_18_0" index="0" speed="9.32" length="12.57" shape="99.08,6.59 100.60,2.20 103.35,-0.65 107.20,-1.60"/>
    </edge>
    <edge id=":2_19" function="internal">
        <lane id=":2_19_0" index="0" speed="3.65" length="3.23" shape="99.20,12.40 100.00,12.00 100.80,12.40 101.60,13.60"/>
    </edge>
    <edge id=":2_4" function="internal">
        <lane id=":2_4_0" index="0" speed="6.51" length="9.03" shape="107.20,8.00 104.75,8.35 103.00,9.40 101.95,11.15 101.60,13.60"/>
    </edge>
    <edge id=":2_5" function="internal">
        <lane id=":2_5_0" index="0" speed="19.44" length="14.40" shape="107.20,8.00 92.80,8.00"/>
        <lane id=":2_5_1" index="1" speed="19.44" length="14.40" shape="107.20,4.80 92.80,4.80"/>
        <lane id=":2_5_2" index="2" speed="19.44" length="14.40" shape="107.20,1.60 92.80,1.60"/>
    </edge>
    <edge id=":2_8" function="internal">
        <lane id=":2_8_0" index="0" speed="9.32" length="19.63" shape="107.20,1.60 103.35,0.65 100.60,-2.20 98.95,-6.95 98.40,-13.60"/>
    </edge>
    <edge id=":2_9" function="internal">
        <lane id=":2_9_0" index="0" speed="6.51" length="9.03" shape="101.60,-13.60 101.95,-11.15 103.00,-9.40 104.75,-8.35 107.20,-8.00"/>
    </edge>
    <edge id=":2_10" function="internal">
        <lane id=":2_10_0" index="0" speed="19.44" length="27.20" shape="101.60,-13.60 101.60,13.60"/>
    </edge>
    <edge id=":2_11" function="internal">
        <lane id=":2_11_0" index="0" speed="9.32" length="7.05" shape="101.60,-13.60 101.05,-6.95 100.92,-6.59"/>
    </edge>
    <edge id=":2_12" function="internal">
        <lane id=":2_12_0" index="0" speed="3.65" length="1.44" shape="101.60,-13.60 100.80,-12.40"/>
    </edge>
    <edge id=":2_20" function="internal">
        <lane id=":2_20_0" index="0" speed="9.32" length="12.57" shape="100.92,-6.59 99.40,-2.20 96.65,0.65 92.80,1.60"/>
    </edge>
    <edge id=":2_21" function="internal">
        <lane id=":2_21_0" index="0" speed="3.65" length="3.23" shape="100.80,-12.40 100.00,-12.00 99.20,-12.40 98.40,-13.60"/>
    </edge>
    <edge id=":2_13" function="internal">
        <lane id=":2_13_0" index="0" speed="6.51" length="9.03" shape="92.80,-8.00 95.25,-8.35 97.00,-9.40 98.05,-11.15 98.40,-13.60"/>
    </edge>
    <edge id=":2_14" function="internal">
        <lane id=":2_14_0" index="0" speed="19.44" length="14.40" shape="92.80,-8.00 107.20,-8.00"/>
        <lane id=":2_14_1" index="1" speed="19.44" length="14.40" shape="92.80,-4.80 107.20,-4.80"/>
        <lane id=":2_14_2" index="2" speed="19.44" length="14.40" shape="92.80,-1.60 107.20,-1.60"/>
    </edge>
    <edge id=":2_17" function="internal">
        <lane id=":2_17_0" index="0" speed="9.32" length="19.63" shape="92.80,-1.60 96.65,-0.65 99.40,2.20 101.05,6.95 101.60,13.60"/>
    </edge>
    <edge id=":3_0" function="internal">
        <lane id=":3_0_0" index="0" speed="6.51" length="9.03" shape="-8.00,-92.80 -8.35,-95.25 -9.40,-97.00 -11.15,-98.05 -13.60,-98.40"/>
    </edge>
    <edge id=":3_1" function="internal">
        <lane id=":3_1_0" index="0" speed="19.44" length="14.40" shape="-8.00,-92.80 -8.00,-107.20"/>
        <lane id=":3_1_1" index="1" speed="19.44" length="14.40" shape="-4.80,-92.80 -4.80,-107.20"/>
        <lane id=":3_1_2" index="2" speed="19.44" length="14.40" shape="-1.60,-92.80 -1.60,-107.20"/>
    </edge>
    <edge id=":3_4" function="internal">
        <lane id=":3_4_0" index="0" speed="9.32" length="19.63" shape="-1.60,-92.80 -0.65,-96.65 2.20,-99.40 6.95,-101.05 13.60,-101.60"/>
    </edge>
    <edge id=":3_5" function="internal">
        <lane id=":3_5_0" index="0" speed="6.51" length="9.03" shape="13.60,-98.40 11.15,-98.05 9.40,-97.00 8.35,-95.25 8.00,-92.80"/>
    </edge>
    <edge id=":3_6" function="internal">
        <lane id=":3_6_0" index="0" speed="19.44" length="27.20" shape="13.60,-98.40 -13.60,-98.40"/>
    </edge>
    <edge id=":3_7" function="internal">
        <lane id=":3_7_0" index="0" speed="9.32" length="7.05" shape="13.60,-98.40 6.95,-98.95 6.59,-99.08"/>
    </edge>
    <edge id=":3_8" function="internal">
        <lane id=":3_8_0" index="0" speed="3.65" length="1.44" shape="13.60,-98.40 12.40,-99.20"/>
    </edge>
    <edge id=":3_18" function="internal">
        <lane id=":3_18_0" index="0" speed="9.32" length="12.57" shape="6.59,-99.08 2.20,-100.60 -0.65,-103.35 -1.60,-107.20"/>
    </edge>
    <edge id=":3_19" function="internal">
        <lane id=":3_19_0" index="0" speed="3.65" length="3.23" shape="12.40,-99.20 12.00,-100.00 12.40,-100.80 13.60,-101.60"/>
    </edge>
    <edge id=":3_9" function="internal">
        <lane id=":3_9_0" index="0" speed="6.51" length="9.03" shape="8.00,-107.20 8.35,-104.75 9.40,-103.00 11.15,-101.95 13.60,-101.60"/>
    </edge>
    <edge id=":3_10" function="internal">
        <lane id=":3_10_0" index="0" speed="19.44" length="14.40" shape="8.00,-107.20 8.00,-92.80"/>
        <lane id=":3_10_1" index="1" speed="19.44" length="14.40" shape="4.80,-107.20 4.80,-92.80"/>
        <lane id=":3_10_2" index="2" speed="19.44" length="14.40" shape="1.60,-107.20 1.60,-92.80"/>
    </edge>
    <edge id=":3_13" function="internal">
        <lane id=":3_13_0" index="0" speed="9.32" length="19.63" shape="1.60,-107.20 0.65,-103.35 -2.20,-100.60 -6.95,-98.95 -13.60,-98.40"/>
    </edge>
    <edge id=":3_14" function="internal">
        <lane id=":3_14_0" index="0" speed="6.51" length="9.03" shape="-13.60,-101.60 -11.15,-101.95 -9.40,-103.00 -8.35,-104.75 -8.00,-107.20"/>
    </edge>
    <edge id=":3_15" function="internal">
        <lane id=":3_15_0" index="0" speed="19.44" length="27.20" shape="-13.60,-101.60 13.60,-101.60"/>
    </edge>
    <edge id=":3_16" function="internal">
        <lane id=":3_16_0" index="0" speed="9.32" length="7.05" shape="-13.60,-101.60 -6.95,-101.05 -6.59,-100.92"/>
    </edge>
    <edge id=":3_17" function="internal">
        <lane id=":3_17_0" index="0" speed="3.65" length="1.44" shape="-13.60,-101.60 -12.40,-100.80"/>
    </edge>
    <edge id=":3_20" function="internal">
        <lane id=":3_20_0" index="0" speed="9.32" length="12.57" shape="-6.59,-100.92 -2.20,-99.40 0.65,-96.65 1.60,-92.80"/>
    </edge>
    <edge id=":3_21" function="internal">
        <lane id=":3_21_0" index="0" speed="3.65" length="3.23" shape="-12.40,-100.80 -12.00,-100.00 -12.40,-99.20 -13.60,-98.40"/>
    </edge>
    <edge id=":4_0" function="internal">
        <lane id=":4_0_0" index="0" speed="6.51" length="9.03" shape="-8.00,107.20 -8.35,104.75 -9.40,103.00 -11.15,101.95 -13.60,101.60"/>
    </edge>
    <edge id=":4_1" function="internal">
        <lane id=":4_1_0" index="0" speed="19.44" length="14.40" shape="-8.00,107.20 -8.00,92.80"/>
        <lane id=":4_1_1" index="1" speed="19.44" length="14.40" shape="-4.80,107.20 -4.80,92.80"/>
        <lane id=":4_1_2" index="2" speed="19.44" length="14.40" shape="-1.60,107.20 -1.60,92.80"/>
    </edge>
    <edge id=":4_4" function="internal">
        <lane id=":4_4_0" index="0" speed="9.32" length="19.63" shape="-1.60,107.20 -0.65,103.35 2.20,100.60 6.95,98.95 13.60,98.40"/>
    </edge>
    <edge id=":4_5" function="internal">
        <lane id=":4_5_0" index="0" speed="6.51" length="9.03" shape="13.60,101.60 11.15,101.95 9.40,103.00 8.35,104.75 8.00,107.20"/>
    </edge>
    <edge id=":4_6" function="internal">
        <lane id=":4_6_0" index="0" speed="19.44" length="27.20" shape="13.60,101.60 -13.60,101.60"/>
    </edge>
    <edge id=":4_7" function="internal">
        <lane id=":4_7_0" index="0" speed="9.32" length="7.05" shape="13.60,101.60 6.95,101.05 6.59,100.92"/>
    </edge>
    <edge id=":4_8" function="internal">
        <lane id=":4_8_0" index="0" speed="3.65" length="1.44" shape="13.60,101.60 12.40,100.80"/>
    </edge>
    <edge id=":4_18" function="internal">
        <lane id=":4_18_0" index="0" speed="9.32" length="12.57" shape="6.59,100.92 2.20,99.40 -0.65,96.65 -1.60,92.80"/>
    </edge>
    <edge id=":4_19" function="internal">
        <lane id=":4_19_0" index="0" speed="3.65" length="3.23" shape="12.40,100.80 12.00,100.00 12.40,99.20 13.60,98.40"/>
    </edge>
    <edge id=":4_9" function="internal">
        <lane id=":4_9_0" index="0" speed="6.51" length="9.03" shape="8.00,92.80 8.35,95.25 9.40,97.00 11.15,98.05 13.60,98.40"/>
    </edge>
    <edge id=":4_10" function="internal">
        <lane id=":4_10_0" index="0" speed="19.44" length="14.40" shape="8.00,92.80 8.00,107.20"/>
        <lane id=":4_10_1" index="1" speed="19.44" length="14.40" shape="4.80,92.80 4.80,107.20"/>
        <lane id=":4_10_2" index="2" speed="19.44" length="14.40" shape="1.60,92.80 1.60,107.20"/>
    </edge>
    <edge id=":4_13" function="internal">
        <lane id=":4_13_0" index="0" speed="9.32" length="19.63" shape="1.60,92.80 0.65,96.65 -2.20,99.40 -6.95,101.05 -13.60,101.60"/>
    </edge>
    <edge id=":4_14" function="internal">
        <lane id=":4_14_0" index="0" speed="6.51" length="9.03" shape="-13.60,98.40 -11.15,98.05 -9.40,97.00 -8.35,95.25 -8.00,92.80"/>
    </edge>
    <edge id=":4_15" function="internal">
        <lane id=":4_15_0" index="0" speed="19.44" length="27.20" shape="-13.60,98.40 13.60,98.40"/>
    </edge>
    <edge id=":4_16" function="internal">
        <lane id=":4_16_0" index="0" speed="9.32" length="7.05" shape="-13.60,98.40 -6.95,98.95 -6.59,99.08"/>
    </edge>
    <edge id=":4_17" function="internal">
        <lane id=":4_17_0" index="0" speed="3.65" length="1.44" shape="-13.60,98.40 -12.40,99.20"/>
    </edge>
    <edge id=":4_20" function="internal">
        <lane id=":4_20_0" index="0" speed="9.32" length="12.57" shape="-6.59,99.08 -2.20,100.60 0.65,103.35 1.60,107.20"/>
    </edge>
    <edge id=":4_21" function="internal">
        <lane id=":4_21_0" index="0" speed="3.65" length="3.23" shape="-12.40,99.20 -12.00,100.00 -12.40,100.80 -13.60,101.60"/>
    </edge>
    <edge id=":F1_0" function="internal">
        <lane id=":F1_0_0" index="0" speed="19.44" length="14.40" shape="-92.80,101.60 -107.20,101.60"/>
    </edge>
    <edge id=":F1_1" function="internal">
        <lane id=":F1_1_0" index="0" speed="8.00" length="4.07" shape="-92.80,101.60 -96.65,101.05 -96.80,100.96"/>
    </edge>
    <edge id=":F1_2" function="internal">
        <lane id=":F1_2_0" index="0" speed="3.65" length="1.44" shape="-92.80,101.60 -94.00,100.80"/>
    </edge>
    <edge id=":F1_8" function="internal">
        <lane id=":F1_8_0" index="0" speed="8.00" length="10.13" shape="-96.80,100.96 -99.40,99.40 -101.05,96.65 -101.60,92.80"/>
    </edge>
    <edge id=":F1_9" function="internal">
        <lane id=":F1_9_0" index="0" speed="3.65" length="3.23" shape="-94.00,100.80 -94.40,100.00 -94.00,99.20 -92.80,98.40"/>
    </edge>
    <edge id=":F1_3" function="internal">
        <lane id=":F1_3_0" index="0" speed="6.51" length="9.03" shape="-98.40,92.80 -98.05,95.25 -97.00,97.00 -95.25,98.05 -92.80,98.40"/>
    </edge>
    <edge id=":F1_4" function="internal">
        <lane id=":F1_4_0" index="0" speed="8.00" length="14.19" shape="-98.40,92.80 -98.95,96.65 -100.60,99.40 -103.35,101.05 -107.20,101.60"/>
    </edge>
    <edge id=":F1_5" function="internal">
        <lane id=":F1_5_0" index="0" speed="3.65" length="4.67" shape="-98.40,92.80 -99.20,94.00 -100.00,94.40 -100.80,94.00 -101.60,92.80"/>
    </edge>
    <edge id=":F1_6" function="internal">
        <lane id=":F1_6_0" index="0" speed="6.51" length="9.03" shape="-107.20,98.40 -104.75,98.05 -103.00,97.00 -101.95,95.25 -101.60,92.80"/>
    </edge>
    <edge id=":F1_7" function="internal">
        <lane id=":F1_7_0" index="0" speed="19.44" length="14.40" shape="-107.20,98.40 -92.80,98.40"/>
    </edge>
    <edge id=":F2_0" function="internal">
        <lane id=":F2_0_0" index="0" speed="19.44" length="14.40" shape="107.20,101.60 92.80,101.60"/>
    </edge>
    <edge id=":F2_1" function="internal">
        <lane id=":F2_1_0" index="0" speed="8.00" length="4.07" shape="107.20,101.60 103.35,101.05 103.20,100.96"/>
    </edge>
    <edge id=":F2_8" function="internal">
        <lane id=":F2_8_0" index="0" speed="8.00" length="10.13" shape="103.20,100.96 100.60,99.40 98.95,96.65 98.40,92.80"/>
    </edge>
    <edge id=":F2_2" function="internal">
        <lane id=":F2_2_0" index="0" speed="6.51" length="9.03" shape="101.60,92.80 101.95,95.25 103.00,97.00 104.75,98.05 107.20,98.40"/>
    </edge>
    <edge id=":F2_3" function="internal">
        <lane id=":F2_3_0" index="0" speed="8.00" length="14.19" shape="101.60,92.80 101.05,96.65 99.40,99.40 96.65,101.05 92.80,101.60"/>
    </edge>
    <edge id=":F2_4" function="internal">
        <lane id=":F2_4_0" index="0" speed="3.65" length="4.67" shape="101.60,92.80 100.80,94.00 100.00,94.40 99.20,94.00 98.40,92.80"/>
    </edge>
    <edge id=":F2_5" function="internal">
        <lane id=":F2_5_0" index="0" speed="6.51" length="9.03" shape="92.80,98.40 95.25,98.05 97.00,97.00 98.05,95.25 98.40,92.80"/>
    </edge>
    <edge id=":F2_6" function="internal">
        <lane id=":F2_6_0" index="0" speed="19.44" length="14.40" shape="92.80,98.40 107.20,98.40"/>
    </edge>
    <edge id=":F2_7" function="internal">
        <lane id=":F2_7_0" index="0" speed="3.65" length="1.44" shape="92.80,98.40 94.00,99.20"/>
    </edge>
    <edge id=":F2_9" function="internal">
        <lane id=":F2_9_0" index="0" speed="3.65" length="3.23" shape="94.00,99.20 94.40,100.00 94.00,100.80 92.80,101.60"/>
    </edge>
    <edge id=":F3_0" function="internal">
        <lane id=":F3_0_0" index="0" speed="6.51" length="9.03" shape="98.40,-92.80 98.05,-95.25 97.00,-97.00 95.25,-98.05 92.80,-98.40"/>
    </edge>
    <edge id=":F3_1" function="internal">
        <lane id=":F3_1_0" index="0" speed="8.00" length="14.19" shape="98.40,-92.80 98.95,-96.65 100.60,-99.40 103.35,-101.05 107.20,-101.60"/>
    </edge>
    <edge id=":F3_2" function="internal">
        <lane id=":F3_2_0" index="0" speed="3.65" length="4.67" shape="98.40,-92.80 99.20,-94.00 100.00,-94.40 100.80,-94.00 101.60,-92.80"/>
    </edge>
    <edge id=":F3_3" function="internal">
        <lane id=":F3_3_0" index="0" speed="6.51" length="9.03" shape="107.20,-98.40 104.75,-98.05 103.00,-97.00 101.95,-95.25 101.60,-92.80"/>
    </edge>
    <edge id=":F3_4" function="internal">
        <lane id=":F3_4_0" index="0" speed="19.44" length="14.40" shape="107.20,-98.40 92.80,-98.40"/>
    </edge>
    <edge id=":F3_5" function="internal">
        <lane id=":F3_5_0" index="0" speed="19.44" length="14.40" shape="92.80,-101.60 107.20,-101.60"/>
    </edge>
    <edge id=":F3_6" function="internal">
        <lane id=":F3_6_0" index="0" speed="8.00" length="4.07" shape="92.80,-101.60 96.65,-101.05 96.80,-100.96"/>
    </edge>
    <edge id=":F3_7" function="internal">
        <lane id=":F3_7_0" index="0" speed="3.65" length="1.44" shape="92.80,-101.60 94.00,-100.80"/>
    </edge>
    <edge id=":F3_8" function="internal">
        <lane id=":F3_8_0" index="0" speed="8.00" length="10.13" shape="96.80,-100.96 99.40,-99.40 101.05,-96.65 101.60,-92.80"/>
    </edge>
    <edge id=":F3_9" function="internal">
        <lane id=":F3_9_0" index="0" speed="3.65" length="3.23" shape="94.00,-100.80 94.40,-100.00 94.00,-99.20 92.80,-98.40"/>
    </edge>
    <edge id=":F4_0" function="internal">
        <lane id=":F4_0_0" index="0" speed="6.51" length="9.03" shape="-101.60,-92.80 -101.95,-95.25 -103.00,-97.00 -104.75,-98.05 -107.20,-98.40"/>
    </edge>
    <edge id=":F4_1" function="internal">
        <lane id=":F4_1_0" index="0" speed="8.00" length="14.19" shape="-101.60,-92.80 -101.05,-96.65 -99.40,-99.40 -96.65,-101.05 -92.80,-101.60"/>
    </edge>
    <edge id=":F4_2" function="internal">
        <lane id=":F4_2_0" index="0" speed="3.65" length="4.67" shape="-101.60,-92.80 -100.80,-94.00 -100.00,-94.40 -99.20,-94.00 -98.40,-92.80"/>
    </edge>
    <edge id=":F4_3" function="internal">
        <lane id=":F4_3_0" index="0" speed="6.51" length="9.03" shape="-92.80,-98.40 -95.25,-98.05 -97.00,-97.00 -98.05,-95.25 -98.40,-92.80"/>
    </edge>
    <edge id=":F4_4" function="internal">
        <lane id=":F4_4_0" index="0" speed="19.44" length="14.40" shape="-92.80,-98.40 -107.20,-98.40"/>
    </edge>
    <edge id=":F4_5" function="internal">
        <lane id=":F4_5_0" index="0" speed="3.65" length="1.44" shape="-92.80,-98.40 -94.00,-99.20"/>
    </edge>
    <edge id=":F4_8" function="internal">
        <lane id=":F4_8_0" index="0" speed="3.65" length="3.23" shape="-94.00,-99.20 -94.40,-100.00 -94.00,-100.80 -92.80,-101.60"/>
    </edge>
    <edge id=":F4_6" function="internal">
        <lane id=":F4_6_0" index="0" speed="19.44" length="14.40" shape="-107.20,-101.60 -92.80,-101.60"/>
    </edge>
    <edge id=":F4_7" function="internal">
        <lane id=":F4_7_0" index="0" speed="8.00" length="4.07" shape="-107.20,-101.60 -103.35,-101.05 -103.20,-100.96"/>
    </edge>
    <edge id=":F4_9" function="internal">
        <lane id=":F4_9_0" index="0" speed="8.00" length="10.13" shape="-103.20,-100.96 -100.60,-99.40 -98.95,-96.65 -98.40,-92.80"/>
    </edge>
    <edge id=":P1_0" function="internal">
        <lane id=":P1_0_0" index="0" speed="3.65" length="4.67" shape="-130.00,101.60 -131.20,100.80 -131.60,100.00 -131.20,99.20 -130.00,98.40"/>
    </edge>
    <edge id=":P2_0" function="internal">
        <lane id=":P2_0_0" index="0" speed="3.65" length="4.67" shape="130.00,98.40 131.20,99.20 131.60,100.00 131.20,100.80 130.00,101.60"/>
    </edge>
    <edge id=":P3_0" function="internal">
        <lane id=":P3_0_0" index="0" speed="3.65" length="4.67" shape="130.00,-101.60 131.20,-100.80 131.60,-100.00 131.20,-99.20 130.00,-98.40"/>
    </edge>
    <edge id=":P4_0" function="internal">
        <lane id=":P4_0_0" index="0" speed="3.65" length="4.67" shape="-130.00,-98.40 -131.20,-99.20 -131.60,-100.00 -131.20,-100.80 -130.00,-101.60"/>
    </edge>

    <edge id="1i" from="1" to="0" priority="78">
        <lane id="1i_0" index="0" speed="19.44" length="79.20" shape="-92.80,-8.00 -13.60,-8.00"/>
        <lane id="1i_1" index="1" speed="19.44" length="79.20" shape="-92.80,-4.80 -13.60,-4.80"/>
        <lane id="1i_2" index="2" speed="19.44" length="79.20" shape="-92.80,-1.60 -13.60,-1.60"/>
    </edge>
    <edge id="1o" from="0" to="1" priority="46">
        <lane id="1o_0" index="0" speed="19.44" length="79.20" shape="-13.60,8.00 -92.80,8.00"/>
        <lane id="1o_1" index="1" speed="19.44" length="79.20" shape="-13.60,4.80 -92.80,4.80"/>
        <lane id="1o_2" index="2" speed="19.44" length="79.20" shape="-13.60,1.60 -92.80,1.60"/>
    </edge>
    <edge id="2i" from="2" to="0" priority="78">
        <lane id="2i_0" index="0" speed="19.44" length="79.20" shape="92.80,8.00 13.60,8.00"/>
        <lane id="2i_1" index="1" speed="19.44" length="79.20" shape="92.80,4.80 13.60,4.80"/>
        <lane id="2i_2" index="2" speed="19.44" length="79.20" shape="92.80,1.60 13.60,1.60"/>
    </edge>
    <edge id="2o" from="0" to="2" priority="46">
        <lane id="2o_0" index="0" speed="19.44" length="79.20" shape="13.60,-8.00 92.80,-8.00"/>
        <lane id="2o_1" index="1" speed="19.44" length="79.20" shape="13.60,-4.80 92.80,-4.80"/>
        <lane id="2o_2" index="2" speed="19.44" length="79.20" shape="13.60,-1.60 92.80,-1.60"/>
    </edge>
    <edge id="3i" from="3" to="0" priority="78">
        <lane id="3i_0" index="0" speed="19.44" length="79.20" shape="8.00,-92.80 8.00,-13.60"/>
        <lane id="3i_1" index="1" speed="19.44" length="79.20" shape="4.80,-92.80 4.80,-13.60"/>
        <lane id="3i_2" index="2" speed="19.44" length="79.20" shape="1.60,-92.80 1.60,-13.60"/>
    </edge>