<?xml version="1.0" encoding="UTF-8"?>

<!-- generated on 2022-09-09 14:35:20 by Eclipse SUMO netedit Version 1.14.1
<configuration xmlns:xsi="http://www.w3.org/2001/XMLSchema-instance" xsi:noNamespaceSchemaLocation="http://sumo.dlr.de/xsd/netconvertConfiguration.xsd">

    <input>
        <sumo-net-file value="/home/lwh/Documents/PredM/SUMO/traci_tls/data/cross.net.xml"/>
    </input>

    <output>
        <output-file value="/home/lwh/Documents/PredM/SUMO/traci_tls/data/cross.net.xml"/>
    </output>

    <processing>
        <geometry.min-radius.fix.railways value="false"/>
        <geometry.max-grade.fix value="false"/>
        <offset.disable-normalization value="true"/>
        <lefthand value="false"/>
    </processing>

    <junctions>
        <no-turnarounds value="true"/>
        <junctions.corner-detail value="5"/>
        <junctions.limit-turn-speed value="5.5"/>
        <rectangular-lane-cut value="false"/>
    </junctions>

    <pedestrian>
        <walkingareas value="false"/>
    </pedestrian>

</configuration>
-->

<net version="1.9" junctionCornerDetail="5" limitTurnSpeed="5.50" xmlns:xsi="http://www.w3.org/2001/XMLSchema-instance" xsi:noNamespaceSchemaLocation="http://sumo.dlr.de/xsd/net_file.xsd">

    <location netOffset="0.00,0.00" convBoundary="-510.00,-510.00,510.00,510.00" origBoundary="-510.00,-510.00,510.00,510.00" projParameter="!"/>

    <edge id=":0_0" function="internal">
        <lane id=":0_0_0" index="0" speed="6.51" length="9.03" shape="-8.00,13.60 -8.35,11.15 -9.40,9.40 -11.15,8.35 -13.60,8.00"/>
    </edge>
    <edge id=":0_1" function="internal">
        <lane id=":0_1_0" index="0" speed="15.28" length="27.37" shape="-4.80,13.60 -5.30,5.50 -6.40,0.00 -7.50,-5.50 -8.00,-13.60"/>
        <lane id=":0_1_1" index="1" speed="15.28" length="27.37" shape="-4.80,13.60 -4.80,-13.60"/>
        <lane id=":0_1_2" index="2" speed="15.28" length="27.37" shape="-4.80,13.60 -4.30,5.50 -3.20,0.00 -2.10,-5.50 -1.60,-13.60"/>
    </edge>
    <edge id=":0_4" function="internal">
        <lane id=":0_4_0" index="0" speed="10.36" length="6.91" shape="-1.60,13.60 -0.65,6.95 -0.55,6.78"/>
    </edge>
    <edge id=":0_5" function="internal">
        <lane id=":0_5_0" index="0" speed="3.65" length="1.44" shape="-1.60,13.60 -0.80,12.40"/>
    </edge>
    <edge id=":0_24" function="internal">
        <lane id=":0_24_0" index="0" speed="10.36" length="17.60" shape="-0.55,6.78 2.20,2.20 6.95,-0.65 13.60,-1.60"/>
    </edge>
    <edge id=":0_25" function="internal">
        <lane id=":0_25_0" index="0" speed="3.65" length="3.23" shape="-0.80,12.40 0.00,12.00 0.80,12.40 1.60,13.60"/>
    </edge>
    <edge id=":0_6" function="internal">
        <lane id=":0_6_0" index="0" speed="6.51" length="9.03" shape="13.60,8.00 11.15,8.35 9.40,9.40 8.35,11.15 8.00,13.60"/>
    </edge>
    <edge id=":0_7" function="internal">
        <lane id=":0_7_0" index="0" speed="15.28" length="27.37" shape="13.60,4.80 5.50,5.30 0.00,6.40 -5.50,7.50 -13.60,8.00"/>
        <lane id=":0_7_1" index="1" speed="15.28" length="27.37" shape="13.60,4.80 -13.60,4.80"/>
        <lane id=":0_7_2" index="2" speed="15.28" length="27.37" shape="13.60,4.80 5.50,4.30 0.00,3.20 -5.50,2.10 -13.60,1.60"/>
    </edge>
    <edge id=":0_10" function="internal">
        <lane id=":0_10_0" index="0" speed="10.36" length="6.91" shape="13.60,1.60 6.95,0.65 6.78,0.55"/>
    </edge>
    <edge id=":0_11" function="internal">
        <lane id=":0_11_0" index="0" speed="3.65" length="1.44" shape="13.60,1.60 12.40,0.80"/>
    </edge>
    <edge id=":0_26" function="internal">
        <lane id=":0_26_0" index="0" speed="10.36" length="17.60" shape="6.78,0.55 2.20,-2.20 -0.65,-6.95 -1.60,-13.60"/>
    </edge>
    <edge id=":0_27" function="internal">
        <lane id=":0_27_0" index="0" speed="3.65" length="3.23" shape="12.40,0.80 12.00,0.00 12.40,-0.80 13.60,-1.60"/>
    </edge>
    <edge id=":0_12" function="internal">
        <lane id=":0_12_0" index="0" speed="6.51" length="9.03" shape="8.00,-13.60 8.35,-11.15 9.40,-9.40 11.15,-8.35 13.60,-8.00"/>
    </edge>
    <edge id=":0_13" function="internal">
        <lane id=":0_13_0" index="0" speed="15.28" length="27.37" shape="4.80,-13.60 5.30,-5.50 6.40,0.00 7.50,5.50 8.00,13.60"/>
        <lane id=":0_13_1" index="1" speed="15.28" length="27.37" shape="4.80,-13.60 4.80,13.60"/>
        <lane id=":0_13_2" index="2" speed="15.28" length="27.37" shape="4.80,-13.60 4.30,-5.50 3.20,0.00 2.10,5.50 1.60,13.60"/>
    </edge>
    <edge id=":0_16" function="internal">
        <lane id=":0_16_0" index="0" speed="10.36" length="6.91" shape="1.60,-13.60 0.65,-6.95 0.55,-6.78"/>
    </edge>
    <edge id=":0_17" function="internal">
        <lane id=":0_17_0" index="0" speed="3.65" length="1.44" shape="1.60,-13.60 0.80,-12.40"/>
    </edge>
    <edge id=":0_28" function="internal">
        <lane id=":0_28_0" index="0" speed="10.36" length="17.60" shape="0.55,-6.78 -2.20,-2.20 -6.95,0.65 -13.60,1.60"/>
    </edge>
    <edge id=":0_29" function="internal">
        <lane id=":0_29_0" index="0" speed="3.65" length="3.23" shape="0.80,-12.40 0.00,-12.00 -0.80,-12.40 -1.60,-13.60"/>
    </edge>
    <edge id=":0_18" function="internal">
        <lane id=":0_18_0" index="0" speed="6.51" length="9.03" shape="-13.60,-8.00 -11.15,-8.35 -9.40,-9.40 -8.35,-11.15 -8.00,-13.60"/>
    </edge>
    <edge id=":0_19" function="internal">
        <lane id=":0_19_0" index="0" speed="15.28" length="27.37" shape="-13.60,-4.80 -5.50,-5.30 0.00,-6.40 5.50,-7.50 13.60,-8.00"/>
        <lane id=":0_19_1" index="1" speed="15.28" length="27.37" shape="-13.60,-4.80 13.60,-4.80"/>
        <lane id=":0_19_2" index="2" speed="15.28" length="27.37" shape="-13.60,-4.80 -5.50,-4.30 0.00,-3.20 5.50,-2.10 13.60,-1.60"/>
    </edge>
    <edge id=":0_22" function="internal">
        <lane id=":0_22_0" index="0" speed="10.36" length="6.91" shape="-13.60,-1.60 -6.95,-0.65 -6.78,-0.55"/>
    </edge>
    <edge id=":0_23" function="internal">
        <lane id=":0_23_0" index="0" speed="3.65" length="1.44" shape="-13.60,-1.60 -12.40,-0.80"/>
    </edge>
    <edge id=":0_30" function="internal">
        <lane id=":0_30_0" index="0" speed="10.36" length="17.60" shape="-6.78,-0.55 -2.20,2.20 0.65,6.95 1.60,13.60"/>
    </edge>
    <edge id=":0_31" function="internal">
        <lane id=":0_31_0" index="0" speed="3.65" length="3.23" shape="-12.40,-0.80 -12.00,0.00 -12.40,0.80 -13.60,1.60"/>
    </edge>
    <edge id=":1_0" function="internal">
        <lane id=":1_0_0" index="0" speed="6.51" length="9.03" shape="-101.60,13.60 -101.95,11.15 -103.00,9.40 -104.75,8.35 -107.20,8.00"/>
    </edge>
    <edge id=":1_1" function="internal">
        <lane id=":1_1_0" index="0" speed="6.51" length="9.03" shape="-92.80,8.00 -95.25,8.35 -97.00,9.40 -98.05,11.15 -98.40,13.60"/>
    </edge>
    <edge id=":1_2" function="internal">
        <lane id=":1_2_0" index="0" speed="15.28" length="14.40" shape="-92.80,8.00 -107.20,8.00"/>
        <lane id=":1_2_1" index="1" speed="15.28" length="14.40" shape="-92.80,4.80 -107.20,4.80"/>
        <lane id=":1_2_2" index="2" speed="15.28" length="14.40" shape="-92.80,1.60 -107.20,1.60"/>
    </edge>
    <edge id=":1_5" function="internal">
        <lane id=":1_5_0" index="0" speed="6.51" length="9.03" shape="-98.40,-13.60 -98.05,-11.15 -97.00,-9.40 -95.25,-8.35 -92.80,-8.00"/>
    </edge>
    <edge id=":1_6" function="internal">
        <lane id=":1_6_0" index="0" speed="6.51" length="9.03" shape="-107.20,-8.00 -104.75,-8.35 -103.00,-9.40 -101.95,-11.15 -101.60,-13.60"/>
    </edge>
    <edge id=":1_7" function="internal">
        <lane id=":1_7_0" index="0" speed="15.28" length="14.40" shape="-107.20,-8.00 -92.80,-8.00"/>
        <lane id=":1_7_1" index="1" speed="15.28" length="14.40" shape="-107.20,-4.80 -92.80,-4.80"/>
        <lane id=":1_7_2" index="2" speed="15.28" length="14.40" shape="-107.20,-1.60 -92.80,-1.60"/>
    </edge>
    <edge id=":2_0" function="internal">
        <lane id=":2_0_0" index="0" speed="6.51" length="9.03" shape="98.40,13.60 98.05,11.15 97.00,9.40 95.25,8.35 92.80,8.00"/>
    </edge>
    <edge id=":2_1" function="internal">
        <lane id=":2_1_0" index="0" speed="6.51" length="9.03" shape="107.20,8.00 104.75,8.35 103.00,9.40 101.95,11.15 101.60,13.60"/>
    </edge>
    <edge id=":2_2" function="internal">
        <lane id=":2_2_0" index="0" speed="15.28" length="14.40" shape="107.20,8.00 92.80,8.00"/>
        <lane id=":2_2_1" index="1" speed="15.28" length="14.40" shape="107.20,4.80 92.80,4.80"/>
        <lane id=":2_2_2" index="2" speed="15.28" length="14.40" shape="107.20,1.60 92.80,1.60"/>
    </edge>
    <edge id=":2_5" function="internal">
        <lane id=":2_5_0" index="0" speed="6.51" length="9.03" shape="101.60,-13.60 101.95,-11.15 103.00,-9.40 104.75,-8.35 107.20,-8.00"/>
    </edge>
    <edge id=":2_6" function="internal">
        <lane id=":2_6_0" index="0" speed="6.51" length="9.03" shape="92.80,-8.00 95.25,-8.35 97.00,-9.40 98.05,-11.15 98.40,-13.60"/>
    </edge>
    <edge id=":2_7" function="internal">
        <lane id=":2_7_0" index="0" speed="15.28" length="14.40" shape="92.80,-8.00 107.20,-8.00"/>
        <lane id=":2_7_1" index="1" speed="15.28" length="14.40" shape="92.80,-4.80 107.20,-4.80"/>
        <lane id=":2_7_2" index="2" speed="15.28" length="14.40" shape="92.80,-1.60 107.20,-1.60"/>
    </edge>
    <edge id=":3_0" function="internal">
        <lane id=":3_0_0" index="0" speed="6.51" length="9.03" shape="-8.00,-92.80 -8.35,-95.25 -9.40,-97.00 -11.15,-98.05 -13.60,-98.40"/>
    </edge>
    <edge id=":3_1" function="internal">
        <lane id=":3_1_0" index="0" speed="15.28" length="14.40" shape="-8.00,-92.80 -8.00,-107.20"/>
        <lane id=":3_1_1" index="1" speed="15.28" length="14.40" shape="-4.80,-92.80 -4.80,-107.20"/>
        <lane id=":3_1_2" index="2" speed="15.28" length="14.40" shape="-1.60,-92.80 -1.60,-107.20"/>
    </edge>
    <edge id=":3_4" function="internal">
        <lane id=":3_4_0" index="0" speed="9.32" length="3.03" shape="-1.60,-92.80 -0.87,-95.74"/>
    </edge>
    <edge id=":3_12" function="internal">
        <lane id=":3_12_0" index="0" speed="9.32" length="16.60" shape="-0.87,-95.74 -0.65,-96.65 2.20,-99.40 6.95,-101.05 13.60,-101.60"/>
    </edge>
    <edge id=":3_5" function="internal">
        <lane id=":3_5_0" index="0" speed="6.51" length="9.03" shape="13.60,-98.40 11.15,-98.05 9.40,-97.00 8.35,-95.25 8.00,-92.80"/>
    </edge>
    <edge id=":3_6" function="internal">
        <lane id=":3_6_0" index="0" speed="6.51" length="9.03" shape="8.00,-107.20 8.35,-104.75 9.40,-103.00 11.15,-101.95 13.60,-101.60"/>
    </edge>
    <edge id=":3_7" function="internal">
        <lane id=":3_7_0" index="0" speed="15.28" length="14.40" shape="8.00,-107.20 8.00,-92.80"/>
        <lane id=":3_7_1" index="1" speed="15.28" length="14.40" shape="4.80,-107.20 4.80,-92.80"/>
        <lane id=":3_7_2" index="2" speed="15.28" length="14.40" shape="1.60,-107.20 1.60,-92.80"/>
    </edge>
    <edge id=":3_10" function="internal">
        <lane id=":3_10_0" index="0" speed="9.32" length="3.03" shape="1.60,-107.20 0.87,-104.26"/>
    </edge>
    <edge id=":3_13" function="internal">
        <lane id=":3_13_0" index="0" speed="9.32" length="16.60" shape="0.87,-104.26 0.65,-103.35 -2.20,-100.60 -6.95,-98.95 -13.60,-98.40"/>
    </edge>
    <edge id=":3_11" function="internal">
        <lane id=":3_11_0" index="0" speed="6.51" length="9.03" shape="-13.60,-101.60 -11.15,-101.95 -9.40,-103.00 -8.35,-104.75 -8.00,-107.20"/>
    </edge>
    <edge id=":4_0" function="internal">
        <lane id=":4_0_0" index="0" speed="6.51" length="9.03" shape="-8.00,107.20 -8.35,104.75 -9.40,103.00 -11.15,101.95 -13.60,101.60"/>
    </edge>
    <edge id=":4_1" function="internal">
        <lane id=":4_1_0" index="0" speed="15.28" length="14.40" shape="-8.00,107.20 -8.00,92.80"/>
        <lane id=":4_1_1" index="1" speed="15.28" length="14.40" shape="-4.80,107.20 -4.80,92.80"/>
        <lane id=":4_1_2" index="2" speed="15.28" length="14.40" shape="-1.60,107.20 -1.60,92.80"/>
    </edge>
    <edge id=":4_4" function="internal">
        <lane id=":4_4_0" index="0" speed="6.51" length="9.03" shape="13.60,101.60 11.15,101.95 9.40,103.00 8.35,104.75 8.00,107.20"/>
    </edge>
    <edge id=":4_5" function="internal">
        <lane id=":4_5_0" index="0" speed="6.51" length="9.03" shape="8.00,92.80 8.35,95.25 9.40,97.00 11.15,98.05 13.60,98.40"/>
    </edge>
    <edge id=":4_6" function="internal">
        <lane id=":4_6_0" index="0" speed="15.28" length="14.40" shape="8.00,92.80 8.00,107.20"/>
        <lane id=":4_6_1" index="1" speed="15.28" length="14.40" shape="4.80,92.80 4.80,107.20"/>
        <lane id=":4_6_2" index="2" speed="15.28" length="14.40" shape="1.60,92.80 1.60,107.20"/>
    </edge>
    <edge id=":4_9" function="internal">
        <lane id=":4_9_0" index="0" speed="6.51" length="9.03" shape="-13.60,98.40 -11.15,98.05 -9.40,97.00 -8.35,95.25 -8.00,92.80"/>
    </edge>
    <edge id=":J0_0" function="internal">
        <lane id=":J0_0_0" index="0" speed="6.08" length="7.74" shape="-96.80,101.60 -98.90,101.30 -100.40,100.40 -101.30,98.90 -101.60,96.80"/>
    </edge>
    <edge id=":J0_1" function="internal">
        <lane id=":J0_1_0" index="0" speed="3.65" length="1.44" shape="-96.80,101.60 -98.00,100.80"/>
    </edge>
    <edge id=":J0_4" function="internal">
        <lane id=":J0_4_0" index="0" speed="3.65" length="3.23" shape="-98.00,100.80 -98.40,100.00 -98.00,99.20 -96.80,98.40"/>
    </edge>
    <edge id=":J0_2" function="internal">
        <lane id=":J0_2_0" index="0" speed="3.90" length="2.58" shape="-98.40,96.80 -98.30,97.50 -98.00,98.00 -97.50,98.30 -96.80,98.40"/>
    </edge>
    <edge id=":J0_3" function="internal">
        <lane id=":J0_3_0" index="0" speed="3.65" length="1.30" shape="-98.40,96.80 -99.12,97.88"/>
    </edge>
    <edge id=":J0_5" function="internal">
        <lane id=":J0_5_0" index="0" speed="3.65" length="3.37" shape="-99.12,97.88 -99.20,98.00 -100.00,98.40 -100.80,98.00 -101.60,96.80"/>
    </edge>
    <edge id=":J1_0" function="internal">
        <lane id=":J1_0_0" index="0" speed="6.08" length="7.74" shape="-101.60,-96.80 -101.30,-98.90 -100.40,-100.40 -98.90,-101.30 -96.80,-101.60"/>
    </edge>
    <edge id=":J1_1" function="internal">
        <lane id=":J1_1_0" index="0" speed="3.65" length="1.44" shape="-101.60,-96.80 -100.80,-98.00"/>
    </edge>
    <edge id=":J1_4" function="internal">
        <lane id=":J1_4_0" index="0" speed="3.65" length="3.23" shape="-100.80,-98.00 -100.00,-98.40 -99.20,-98.00 -98.40,-96.80"/>
    </edge>
    <edge id=":J1_2" function="internal">
        <lane id=":J1_2_0" index="0" speed="3.90" length="2.58" shape="-96.80,-98.40 -97.50,-98.30 -98.00,-98.00 -98.30,-97.50 -98.40,-96.80"/>
    </edge>
    <edge id=":J1_3" function="internal">
        <lane id=":J1_3_0" index="0" speed="3.65" length="1.30" shape="-96.80,-98.40 -97.88,-99.12"/>
    </edge>
    <edge id=":J1_5" function="internal">
        <lane id=":J1_5_0" index="0" speed="3.65" length="3.37" shape="-97.88,-99.12 -98.00,-99.20 -98.40,-100.00 -98.00,-100.80 -96.80,-101.60"/>
    </edge>
    <edge id=":J2_0" function="internal">
        <lane id=":J2_0_0" index="0" speed="3.90" length="2.58" shape="98.40,-96.80 98.30,-97.50 98.00,-98.00 97.50,-98.30 96.80,-98.40"/>
    </edge>
    <edge id=":J2_1" function="internal">
        <lane id=":J2_1_0" index="0" speed="3.65" length="1.30" shape="98.40,-96.80 99.12,-97.88"/>
    </edge>
    <edge id=":J2_4" function="internal">
        <lane id=":J2_4_0" index="0" speed="3.65" length="3.37" shape="99.12,-97.88 99.20,-98.00 100.00,-98.40 100.80,-98.00 101.60,-96.80"/>
    </edge>
    <edge id=":J2_2" function="internal">
        <lane id=":J2_2_0" index="0" speed="6.08" length="7.74" shape="96.80,-101.60 98.90,-101.30 100.40,-100.40 101.30,-98.90 101.60,-96.80"/>
    </edge>
    <edge id=":J2_3" function="internal">
        <lane id=":J2_3_0" index="0" speed="3.65" length="1.44" shape="96.80,-101.60 98.00,-100.80"/>
    </edge>
    <edge id=":J2_5" function="internal">
        <lane id=":J2_5_0" index="0" speed="3.65" length="3.23" shape="98.00,-100.80 98.40,-100.00 98.00,-99.20 96.80,-98.40"/>
    </edge>
    <edge id=":J3_0" function="internal">
        <lane id=":J3_0_0" index="0" speed="6.08" length="7.74" shape="101.60,96.80 101.30,98.90 100.40,100.40 98.90,101.30 96.80,101.60"/>
    </edge>
    <edge id=":J3_1" function="internal">
        <lane id=":J3_1_0" index="0" speed="3.65" length="1.44" shape="101.60,96.80 100.80,98.00"/>
    </edge>
    <edge id=":J3_4" function="internal">
        <lane id=":J3_4_0" index="0" speed="3.65" length="3.23" shape="100.80,98.00 100.00,98.40 99.20,98.00 98.40,96.80"/>
    </edge>
    <edge id=":J3_2" function="internal">
        <lane id=":J3_2_0" index="0" speed="3.90" length="2.58" shape="96.80,98.40 97.50,98.30 98.00,98.00 98.30,97.50 98.40,96.80"/>
    </edge>
    <edge id=":J3_3" function="internal">
        <lane id=":J3_3_0" index="0" speed="3.65" length="1.30" shape="96.80,98.40 97.88,99.12"/>
    </edge>
    <edge id=":J3_5" function="internal">
        <lane id=":J3_5_0" index="0" speed="3.65" length="3.37" shape="97.88,99.12 98.00,99.20 98.40,100.00 98.00,100.80 96.80,101.60"/>
    </edge>

    <edge id="-E0" from="J0" to="4" priority="-1">
        <lane id="-E0_0" index="0" speed="13.89" length="83.20" shape="-96.80,98.40 -13.60,98.40"/>
    </edge>
    <edge id="-E1" from="1" to="J0" priority="-1">
        <lane id="-E1_0" index="0" speed="13.89" length="83.20" shape="-98.40,13.60 -98.40,96.80"/>
    </edge>
    <edge id="-E2" from="J1" to="1" priority="-1">
        <lane id="-E2_0" index="0" speed="13.89" length="83.20" shape="-98.40,-96.80 -98.40,-13.60"/>
    </edge>
    <edge id="-E3" from="3" to="J1" priority="-1">
        <lane id="-E3_0" index="0" speed="13.89" length="83.20" shape="-13.60,-98.40 -96.80,-98.40"/>
    </edge>
    <edge id="-E4" from="J2" to="3" priority="-1">
        <lane id="-E4_0" index="0" speed="13.89" length="83.20" shape="96.80,-98.40 13.60,-98.40"/>
    </edge>
    <edge id="-E5" from="2" to="J2" priority="-1">
        <lane id="-E5_0" index="0" speed="13.89" length="83.20" shape="98.40,-13.60 98.40,-96.80"/>
    </edge>
    <edge id="-E6" from="J3" to="4" priority="-1">
        <lane id="-E6_0" index="0" speed="13.89" length="83.20" shape="96.80,101.60 13.60,101.60"/>
    </edge>
    <edge id="-E7" from="J3" to="2" priority="-1">
        <lane id="-E7_0" index="0" speed="13.89" length="83.20" shape="98.40,96.80 98.40,13.60"/>
    </edge>
    <edge id="1i" from="1" to="0" priority="78">
        <lane id="1i_0" index="0" speed="19.44" length="79.20" shape="-92.80,-8.00 -13.60,-8.00"/>
        <lane id="1i_1" index="1" speed="19.44" length="79.20" shape="-92.80,-4.80 -13.60,-4.80"/>
        <lane id="1i_2" index="2" speed="19.44" length="79.20" shape="-92.80,-1.60 -13.60,-1.60"/>
    </edge>
    <edge id="1o" from="0" to="1" priority="46">
        <lane id="1o_0" index="0" speed="11.11" length="79.20" shape="-13.60,8.00 -92.80,8.00"/>
        <lane id="1o_1" index="1" speed="11.11" length="79.20" shape="-13.60,4.80 -92.80,4.80"/>
        <lane id="1o_2" index="2" speed="11.11" length="79.20" shape="-13.60,1.60 -92.80,1.60"/>
    </edge>
    <edge id="2i" from="2" to="0" priority="78">
        <lane id="2i_0" index="0" speed="19.44" length="79.20" shape="92.80,8.00 13.60,8.00"/>
        <lane id="2i_1" index="1" speed="19.44" length="79.20" shape="92.80,4.80 13.60,4.80"/>
        <lane id="2i_2" index="2" speed="19.44" length="79.20" shape="92.80,1.60 13.60,1.60"/>
    </edge>
    <edge id="2o" from="0" to="2" priority="46">
        <lane id="2o_0" index="0" speed="11.11" length="79.20" shape="13.60,-8.00 92.80,-8.00"/>
        <lane id="2o_1" index="1" speed="11.11" length="79.20" shape="13.60,-4.80 92.80,-4.80"/>
        <lane id="2o_2" index="2" speed="11.11" length="79.20" shape="13.60,-1.60 92.80,-1.60"/>
    </edge>
    <edge id="3i" from="3" to="0" priority="78">
        <lane id="3i_0" index="0" speed="19.44" length="79.20" shape="8.00,-92.80 8.00,-13.60"/>
        <lane id="3i_1" index="1" speed="19.44" length="79.20" shape="4.80,-92.80 4.80,-13.60"/>
        <lane id="3i_2" index="2" speed="19.44" length="79.20" shape="1.60,-92.80 1.60,-13.60"/>
    </edge>
    <edge id="3o" from="0" to="3" priority="46">
        <lane id="3o_0" index="0" speed="11.11" length="79.20" shape="-8.00,-13.60 -8.00,-92.80"/>
        <lane id="3o_1" index="1" speed="11.11" length="79.20" shape="-4.80,-13.60 -4.80,-92.80"/>
        <lane id="3o_2" index="2" speed="11.11" length="79.20" shape="-1.60,-13.60 -1.60,-92.80"/>
    </edge>
    <edge id="4i" from="4" to="0" priority="78">
        <lane id="4i_0" index="0" speed="19.44" length="79.20" shape="-8.00,92.80 -8.00,13.60"/>
        <lane id="4i_1" index="1" speed="19.44" length="79.20" shape="-4.80,92.80 -4.80,13.60"/>
        <lane id="4i_2" index="2" speed="19.44" length="79.20" shape="-1.60,92.80 -1.60,13.60"/>
    </edge>
    <edge id="4o" from="0" to="4" priority="46">
        <lane id="4o_0" index="0" speed="11.11" length="79.20" shape="8.00,13.60 8.00,92.80"/>
        <lane id="4o_1" index="1" speed="11.11" length="79.20" shape="4.80,13.60 4.80,92.80"/>
        <lane id="4o_2" index="2" speed="11.11" length="79.20" shape="1.60,13.60 1.60,92.80"/>
    </edge>
    <edge id="51i" from="1" to="51" priority="78">
        <lane id="51i_0" index="0" speed="19.44" length="402.80" shape="-107.20,8.00 -510.00,8.00"/>
        <lane id="51i_1" index="1" speed="19.44" length="402.80" shape="-107.20,4.80 -510.00,4.80"/>
        <lane id="51i_2" index="2" speed="19.44" length="402.80" shape="-107.20,1.60 -510.00,1.60"/>
    </edge>
    <edge id="51o" from="51" to="1" priority="46">
        <lane id="51o_0" index="0" speed="11.11" length="402.80" shape="-510.00,-8.00 -107.20,-8.00"/>
        <lane id="51o_1" index="1" speed="11.11" length="402.80" shape="-510.00,-4.80 -107.20,-4.80"/>
        <lane id="51o_2" index="2" speed="11.11" length="402.80" shape="-510.00,-1.60 -107.20,-1.60"/>
    </edge>
    <edge id="52i" from="2" to="52" priority="78">
        <lane id="52i_0" index="0" speed="19.44" length="402.80" shape="107.20,-8.00 510.00,-8.00"/>
        <lane id="52i_1" index="1" speed="19.44" length="402.80" shape="107.20,-4.80 510.00,-4.80"/>
        <lane id="52i_2" index="2" speed="19.44" length="402.80" shape="107.20,-1.60 510.00,-1.60"/>
    </edge>
    <edge id="52o" from="52" to="2" priority="46">
        <lane id="52o_0" index="0" speed="11.11" length="402.80" shape="510.00,8.00 107.20,8.00"/>
        <lane id="52o_1" index="1" speed="11.11" length="402.80" shape="510.00,4.80 107.20,4.80"/>
        <lane id="52o_2" index="2" speed="11.11" length="402.80" shape="510.00,1.60 107.20,1.60"/>
    </edge>
    <edge id="53i" from="3" to="53" priority="78">
        <lane id="53i_0" index="0" speed="19.44" length="402.80" shape="-8.00,-107.20 -8.00,-510.00"/>
        <lane id="53i_1" index="1" speed="19.44" length="402.80" shape="-4.80,-107.20 -4.80,-510.00"/>
        <lane id="53i_2" index="2" speed="19.44" length="402.80" shape="-1.60,-107.20 -1.60,-510.00"/>
    </edge>
    <edge id="53o" from="53" to="3" priority="46">
        <lane id="53o_0" index="0" speed="11.11" length="402.80" shape="8.00,-510.00 8.00,-107.20"/>
        <lane id="53o_1" index="1" speed="11.11" length="402.80" shape="4.80,-510.00 4.80,-107.20"/>
        <lane id="53o_2" index="2" speed="11.11" length="402.80" shape="1.60,-510.00 1.60,-107.20"/>
    </edge>
    <edge id="54i" from="4" to="54" priority="78">
        <lane id="54i_0" index="0" speed="19.44" length="402.80" shape="8.00,107.20 8.00,510.00"/>
        <lane id="54i_1" index="1" speed="19.44" length="402.80" shape="4.80,107.20 4.80,510.00"/>
        <lane id="54i_2" index="2" speed="19.44" length="402.80" shape="1.60,107.20 1.60,510.00"/>
    </edge>
    <edge id="54o" from="54" to="4" priority="46">
        <lane id="54o_0" index="0" speed="11.11" length="402.80" shape="-8.00,510.00 -8.00,107.20"/>
        <lane id="54o_1" index="1" speed="11.11" length="402.80" shape="-4.80,510.00 -4.80,107.20"/>
        <lane id="54o_2" index="2" speed="11.11" length="402.80" shape="-1.60,510.00 -1.60,107.20"/>
    </edge>
    <edge id="E0" from="4" to="J0" priority="-1">
        <lane id="E0_0" index="0" speed="13.89" length="83.20" shape="-13.60,101.60 -96.80,101.60"/>
    </edge>
    <edge id="E1" from="J0" to="1" priority="-1">
        <lane id="E1_0" index="0" speed="13.89" length="83.20" shape="-101.60,96.80 -101.60,13.60"/>
    </edge>
    <edge id="E2" from="1" to="J1" priority="-1">
        <lane id="E2_0" index="0" speed="13.89" length="83.20" shape="-101.60,-13.60 -101.60,-96.80"/>
    </edge>
    <edge id="E3" from="J1" to="3" priority="-1">
        <lane id="E3_0" index="0" speed="13.89" length="83.20" shape="-96.80,-101.60 -13.60,-101.60"/>
    </edge>
    <edge id="E4" from="3" to="J2" priority="-1">
        <lane id="E4_0" index="0" speed="13.89" length="83.20" shape="13.60,-101.60 96.80,-101.60"/>
    </edge>
    <edge id="E5" from="J2" to="2" priority="-1">
        <lane id="E5_0" index="0" speed="13.89" length="83.20" shape="101.60,-96.80 101.60,-13.60"/>
    </edge>
    <edge id="E6" from="4" to="J3" priority="-1">
        <lane id="E6_0" index="0" speed="13.89" length="83.20" shape="13.60,98.40 96.80,98.40"/>
    </edge>
    <edge id="E7" from="2" to="J3" priority="-1">
        <lane id="E7_0" index="0" speed="13.89" length="83.20" shape="101.60,13.60 101.60,96.80"/>
    </edge>

    <tlLogic id="0" type="static" programID="0" offset="0">
        <phase duration="29" state="GGGGggrrrrrrGGGGggrrrrrr"/>
        <phase duration="5"  state="yyyyggrrrrrryyyyggrrrrrr"/>
        <phase duration="6"  state="rrrrGGrrrrrrrrrrGGrrrrrr"/>
        <phase duration="5"  state="rrrryyrrrrrrrrrryyrrrrrr"/>
        <phase duration="29" state="rrrrrrGGGGggrrrrrrGGGGgg"/>
        <phase duration="5"  state="rrrrrryyyyggrrrrrryyyygg"/>
        <phase duration="6"  state="rrrrrrrrrrGGrrrrrrrrrrGG"/>
        <phase duration="5"  state="rrrrrrrrrryyrrrrrrrrrryy"/>
    </tlLogic>

    <junction id="0" type="traffic_light" x="0.00" y="0.00" incLanes="4i_0 4i_1 4i_2 2i_0 2i_1 2i_2 3i_0 3i_1 3i_2 1i_0 1i_1 1i_2" intLanes=":0_0_0 :0_1_0 :0_1_1 :0_1_2 :0_24_0 :0_25_0 :0_6_0 :0_7_0 :0_7_1 :0_7_2 :0_26_0 :0_27_0 :0_12_0 :0_13_0 :0_13_1 :0_13_2 :0_28_0 :0_29_0 :0_18_0 :0_19_0 :0_19_1 :0_19_2 :0_30_0 :0_31_0" shape="-9.60,13.60 9.60,13.60 10.04,11.38 10.60,10.60 11.38,10.04 12.38,9.71 13.60,9.60 13.60,-9.60 11.38,-10.04 10.60,-10.60 10.04,-11.38 9.71,-12.38 9.60,-13.60 -9.60,-13.60 -10.04,-11.38 -10.60,-10.60 -11.38,-10.04 -12.38,-9.71 -13.60,-9.60 -13.60,9.60 -11.38,10.04 -10.60,10.60 -10.04,11.38 -9.71,12.38">
        <request index="0"  response="000000000000000000000000" foes="000000000000001110000000" cont="0"/>
        <request index="1"  response="010000000000010000000000" foes="011111110000011110000000" cont="0"/>
        <request index="2"  response="010000000000010000000000" foes="011111110000011110000000" cont="0"/>
        <request index="3"  response="010000000000010000000000" foes="011111110000011110000000" cont="0"/>
        <request index="4"  response="010000001110010000000000" foes="011110001110111110000000" cont="1"/>
        <request index="5"  response="010000001110000000000000" foes="010000001110000000000000" cont="1"/>
        <request index="6"  response="000000001110000000000000" foes="000000001110000000000000" cont="0"/>
        <request index="7"  response="000000011110000000011111" foes="110000011110000000011111" cont="0"/>
        <request index="8"  response="000000011110000000011111" foes="110000011110000000011111" cont="0"/>
        <request index="9"  response="000000011110000000011111" foes="110000011110000000011111" cont="0"/>
        <request index="10" response="001110011110000000011110" foes="001110111110000000011110" cont="1"/>
        <request index="11" response="001110000000000000010000" foes="001110000000000000010000" cont="1"/>
        <request index="12" response="000000000000000000000000" foes="001110000000000000000000" cont="0"/>
        <request index="13" response="010000000000010000000000" foes="011110000000011111110000" cont="0"/>
        <request index="14" response="010000000000010000000000" foes="011110000000011111110000" cont="0"/>
        <request index="15" response="010000000000010000000000" foes="011110000000011111110000" cont="0"/>
        <request index="16" response="010000000000010000001110" foes="111110000000011110001110" cont="1"/>
        <request index="17" response="000000000000010000001110" foes="000000000000010000001110" cont="1"/>
        <request index="18" response="000000000000000000001110" foes="000000000000000000001110" cont="0"/>
        <request index="19" response="000000011111000000011110" foes="000000011111110000011110" cont="0"/>
        <request index="20" response="000000011111000000011110" foes="000000011111110000011110" cont="0"/>
        <request index="21" response="000000011111000000011110" foes="000000011111110000011110" cont="0"/>
        <request index="22" response="000000011110001110011110" foes="000000011110001110111110" cont="1"/>
        <request index="23" response="000000010000001110000000" foes="000000010000001110000000" cont="1"/>
    </junction>