<?xml version="1.0" encoding="UTF-8"?>

<!-- generated on 2022-10-13 21:29:02.900442 by osmWebWizard.py UNKNOWN
<configuration>
    <end value="3600"/>
    <fringe-factor value="5.0"/>
    <fringe-start-attributes value="departSpeed=&quot;max&quot;"/>
    <min-distance value="600.0"/>
    <net-file value="/usr/share/sumo/tools/2022-10-13-21-26-38/osm.net.xml"/>
    <period value="1.1582403395034262"/>
    <route-file value="/usr/share/sumo/tools/2022-10-13-21-26-38/osm.bus.rou.xml"/>
    <trip-attributes value="departLane=&quot;best&quot;"/>
    <output-trip-file value="/usr/share/sumo/tools/2022-10-13-21-26-38/osm.bus.trips.xml"/>
    <prefix value="bus"/>
    <validate value="True"/>
    <vclass value="bus"/>
    <vehicle-class value="bus"/>
</configuration>
-->

<!-- generated on 2022-10-13 21:28:51 by Eclipse SUMO duarouter Version 1.14.1
<configuration xmlns:xsi="http://www.w3.org/2001/XMLSchema-instance" xsi:noNamespaceSchemaLocation="http://sumo.dlr.de/xsd/duarouterConfiguration.xsd">

    <input>
        <net-file value="/usr/share/sumo/tools/2022-10-13-21-26-38/osm.net.xml"/>
        <route-files value="/usr/share/sumo/tools/2022-10-13-21-26-38/osm.bus.trips.xml"/>
    </input>

    <output>
        <output-file value="/usr/share/sumo/tools/2022-10-13-21-26-38/osm.bus.trips.xml.tmp"/>
        <alternatives-output value="NUL"/>
        <write-trips value="true"/>
    </output>

    <time>
        <begin value="0"/>
        <end value="3600"/>
    </time>

    <report>
        <no-warnings value="true"/>
        <ignore-errors value="true"/>
        <no-step-log value="true"/>
    </report>

</configuration>
-->

<routes xmlns:xsi="http://www.w3.org/2001/XMLSchema-instance" xsi:noNamespaceSchemaLocation="http://sumo.dlr.de/xsd/routes_file.xsd">
    <vType id="bus_bus" vClass="bus"/>
    <trip id="bus0" type="bus_bus" depart="0.00" departLane="best" from="634084928#0" to="-22973550"/>
    <trip id="bus1" type="bus_bus" depart="1.16" departLane="best" from="-75065015" to="-660076548"/>
    <trip id="bus2" type="bus_bus" depart="2.32" departLane="best" departSpeed="max" from="644722741#0" to="639546979#0"/>
    <trip id="bus3" type="bus_bus" depart="3.47" departLane="best" from="28581264" to="-238964430#1"/>
    <trip id="bus4" type="bus_bus" depart="4.63" departLane="best" from="-654732033#1" to="479363930#1"/>
    <trip id="bus5" type="bus_bus" depart="5.79" departLane="best" from="-230019725#2" to="-646402877"/>
    <trip id="bus6" type="bus_bus" depart="6.95" departLane="best" from="481880719#1" to="481880719#1"/>
    <trip id="bus7" type="bus_bus" depart="8.11" departLane="best" from="-656121216" to="545582221"/>
    <trip id="bus8" type="bus_bus" depart="9.27" departLane="best" from="657615266#0" to="-141901384#0"/>
    <trip id="bus9" type="bus_bus" depart="10.42" departLane="best" from="655641116" to="640234330"/>
    <trip id="bus10" type="bus_bus" depart="11.58" departLane="best" from="161888200" to="-641158749"/>
    <trip id="bus11" type="bus_bus" depart="12.74" departLane="best" from="788770686" to="156566849#2"/>
    <trip id="bus12" type="bus_bus" depart="13.90" departLane="best" from="-538223060#0" to="-539741653"/>
    <trip id="bus13" type="bus_bus" depart="15.06" departLane="best" from="699029505#0" to="630807079"/>
    <trip id="bus14" type="bus_bus" depart="16.22" departLane="best" from="655809331" to="644333162"/>
    <trip id="bus15" type="bus_bus" depart="17.37" departLane="best" departSpeed="max" from="481623205#0" to="829182732"/>
    <trip id="bus16" type="bus_bus" depart="18.53" departLane="best" from="223669130" to="49320711"/>
    <trip id="bus17" type="bus_bus" depart="19.69" departLane="best" from="669631391#0" to="632727818"/>
    <trip id="bus18" type="bus_bus" depart="20.85" departLane="best" from="721860173#1" to="539428650#2"/>
    <trip id="bus19" type="bus_bus" depart="22.01" departLane="best" from="641079434" to="-34206754#1"/>
    <trip id="bus20" type="bus_bus" depart="23.16" departLane="best" from="-665758193" to="-784097100#0"/>
    <trip id="bus21" type="bus_bus" depart="24.32" departLane="best" from="-480536418#1" to="-669622559"/>
    <trip id="bus22" type="bus_bus" depart="25.48" departLane="best" from="-631934204" to="-75066831"/>
    <trip id="bus23" type="bus_bus" depart="26.64" departLane="best" from="633806992" to="173913052"/>
    <trip id="bus24" type="bus_bus" depart="27.80" departLane="best" from="178104929#1" to="-646874392"/>
    <trip id="bus25" type="bus_bus" depart="28.96" departLane="best" from="-746639141" to="-746639141"/>
    <trip id="bus26" type="bus_bus" depart="30.11" departLane="best" from="634551594" to="632185447#0"/>
    <trip id="bus27" type="bus_bus" depart="31.27" departLane="best" from="-644395742#1" to="644331174"/>
    <trip id="bus28" type="bus_bus" depart="32.43" departLane="best" from="-643837686" to="22040882#1"/>
    <trip id="bus29" type="bus_bus" depart="33.59" departLane="best" from="933287583" to="634090117"/>
    <trip id="bus30" type="bus_bus" depart="34.75" departLane="best" from="523609247" to="639890968"/>
    <trip id="bus31" type="bus_bus" depart="35.91" departLane="best" from="690616811" to="646873326"/>
    <trip id="bus32" type="bus_bus" depart="37.06" departLane="best" from="-667358895" to="-254610492"/>
    <trip id="bus33" type="bus_bus" depart="38.22" departLane="best" from="1092306844" to="-74619423"/>
    <trip id="bus34" type="bus_bus" depart="39.38" departLane="best" from="-647095372" to="766417686"/>
    <trip id="bus35" type="bus_bus" depart="40.54" departLane="best" from="730916770" to="1065816861"/>
    <trip id="bus36" type="bus_bus" depart="41.70" departLane="best" from="635478150#1" to="22964194"/>
    <trip id="bus37" type="bus_bus" depart="42.85" departLane="best" from="750107542" to="44584668"/>
    <trip id="bus38" type="bus_bus" depart="44.01" departLane="best" from="-745327742" to="-692668874"/>
    <trip id="bus39" type="bus_bus" depart="45.17" departLane="best" from="533606972#3" to="-737957622#1"/>
    <trip id="bus40" type="bus_bus" depart="46.33" departLane="best" from="540515308" to="746624516"/>
    <trip id="bus41" type="bus_bus" depart="47.49" departLane="best" from="23126399#1" to="-652315965#0"/>
    <trip id="bus42" type="bus_bus" depart="48.65" departLane="best" from="97588119#0" to="479616087"/>
    <trip id="bus43" type="bus_bus" depart="49.80" departLane="best" from="-535030467" to="-34206787"/>
    <trip id="bus44" type="bus_bus" depart="50.96" departLane="best" from="-633219855#0" to="633312979"/>
    <trip id="bus45" type="bus_bus" depart="52.12" departLane="best" from="652241449#0" to="265150845#1"/>
    <trip id="bus46" type="bus_bus" depart="53.28" departLane="best" from="-464804574#0" to="22382091"/>
    <trip id="bus47" type="bus_bus" depart="54.44" departLane="best" from="96680724" to="480936815#1"/>
    <trip id="bus48" type="bus_bus" depart="55.60" departLane="best" from="825797683#1" to="719151711#1"/>
    <trip id="bus49" type="bus_bus" depart="56.75" departLane="best" from="-162268372" to="643778705"/>
    <trip id="bus50" type="bus_bus" depart="57.91" departLane="best" from="639721104#1" to="481626376#1"/>
    <trip id="bus51" type="bus_bus" depart="59.07" departLane="best" from="-746628795" to="634146357"/>
    <trip id="bus52" type="bus_bus" depart="60.23" departLane="best" from="34066233" to="34066233"/>
    <trip id="bus54" type="bus_bus" depart="62.54" departLane="best" from="730057173" to="-740136184#2"/>
    <trip id="bus55" type="bus_bus" depart="63.70" departLane="best" from="479115440#1" to="-644849921"/>
    <trip id="bus56" type="bus_bus" depart="64.86" departLane="best" from="75007285#0" to="726848034#1"/>
    <trip id="bus57" type="bus_bus" depart="66.02" departLane="best" from="-872846754#1" to="634057079"/>
    <trip id="bus58" type="bus_bus" depart="67.18" departLane="best" from="632180183" to="-641113122#1"/>
    <trip id="bus59" type="bus_bus" depart="68.34" departLane="best" from="646401252" to="481660834#0"/>
    <trip id="bus60" type="bus_bus" depart="69.49" departLane="best" from="646965007#1" to="480939035"/>
    <trip id="bus61" type="bus_bus" depart="70.65" departLane="best" from="-103926121" to="121883644"/>
    <trip id="bus62" type="bus_bus" depart="71.81" departLane="best" from="-198404363#1" to="75414321#1"/>
    <trip id="bus63" type="bus_bus" depart="72.97" departLane="best" from="736532523" to="669876225"/>
    <trip id="bus65" type="bus_bus" depart="75.29" departLane="best" from="735356847" to="769560986#2"/>
    <trip id="bus66" type="bus_bus" depart="76.44" departLane="best" from="-481847669" to="465698446#0"/>
    <trip id="bus67" type="bus_bus" depart="77.60" departLane="best" from="646332412" to="646332412"/>
    <trip id="bus68" type="bus_bus" depart="78.76" departLane="best" from="646636691" to="-637736415#1"/>
    <trip id="bus69" type="bus_bus" depart="79.92" departLane="best" from="464960732#1" to="483248235"/>
    <trip id="bus70" type="bus_bus" depart="81.08" departLane="best" from="-745356719" to="727554199"/>
    <trip id="bus71" type="bus_bus" depart="82.24" departLane="best" from="312704116#0" to="-646981084"/>
    <trip id="bus72" type="bus_bus" depart="83.39" departLane="best" from="481659599" to="644334637#0"/>
    <trip id="bus73" type="bus_bus" depart="84.55" departLane="best" from="-646729612" to="-987665015#1"/>
    <trip id="bus74" type="bus_bus" depart="85.71" departLane="best" from="96670625#0" to="634768962#0"/>
    <trip id="bus75" type="bus_bus" depart="86.87" departLane="best" from="34240349" to="480683355"/>
    <trip id="bus76" type="bus_bus" depart="88.03" departLane="best" from="-635308712#0" to="-661661298"/>
    <trip id="bus79" type="bus_bus" depart="91.50" departLane="best" from="-465601071#0" to="633569919#0"/>
    <trip id="bus80" type="bus_bus" depart="92.66" departLane="best" from="-667233626#0" to="747367551"/>
    <trip id="bus81" type="bus_bus" depart="93.82" departLane="best" from="719079602" to="-465013327"/>
    <trip id="bus83" type="bus_bus" depart="96.13" departLane="best" from="-650967935" to="-639548155#0"/>
    <trip id="bus84" type="bus_bus" depart="97.29" departLane="best" from="763006160" to="538766133#2"/>
    <trip id="bus85" type="bus_bus" depart="98.45" departLane="best" from="464822170#0" to="649504742"/>
    <trip id="bus87" type="bus_bus" depart="100.77" departLane="best" from="-545568765" to="33875666#1"/>
    <trip id="bus88" type="bus_bus" depart="101.93" departLane="best" from="313194868#1" to="313194868#1"/>
    <trip id="bus89" type="bus_bus" depart="103.08" departLane="best" from="644335299#1" to="639300696"/>
    <trip id="bus90" type="bus_bus" depart="104.24" departLane="best" from="868983650#1" to="-541955997"/>
    <trip id="bus91" type="bus_bus" depart="105.40" departLane="best" from="238964395#0" to="159674810#0"/>
    <trip id="bus93" type="bus_bus" depart="107.72" departLane="best" from="-646200797" to="370410783"/>
    <trip id="bus94" type="bus_bus" depart="108.87" departLane="best" from="28581258#2" to="-75066849#0"/>
    <trip id="bus95" type="bus_bus" depart="110.03" departLane="best" from="-718777250" to="751763277"/>
    <trip id="bus96" type="bus_bus" depart="111.19" departLane="best" from="364448578#1" to="720086820#0"/>
    <trip id="bus97" type="bus_bus" depart="112.35" departLane="best" from="482266822" to="-34240358"/>
    <trip id="bus98" type="bus_bus" depart="113.51" departLane="best" from="98570609#0" to="673037064#0"/>
    <trip id="bus100" type="bus_bus" depart="115.82" departLane="best" from="701166198" to="-643868597#1"/>
    <trip id="bus101" type="bus_bus" depart="116.98" departLane="best" from="466314252" to="-647098046#1"/>
    <trip id="bus102" type="bus_bus" depart="118.14" departLane="best" from="23136164#2" to="-44673610"/>
    <trip id="bus103" type="bus_bus" depart="119.30" departLane="best" from="22382092#1" to="879605805#1"/>
    <trip id="bus104" type="bus_bus" depart="120.46" departLane="best" from="-745675205#1" to="649385740"/>
    <trip id="bus105" type="bus_bus" depart="121.62" departLane="best" from="445282984" to="284167592#1"/>
    <trip id="bus106" type="bus_bus" depart="122.77" departLane="best" from="789260423" to="789260423"/>
    <trip id="bus107" type="bus_bus" depart="123.93" departLane="best" from="512870318#0" to="643739261"/>
    <trip id="bus109" type="bus_bus" depart="126.25" departLane="best" from="821307852" to="821307852"/>
    <trip id="bus110" type="bus_bus" depart="127.41" departLane="best" from="481676840" to="645164459"/>
    <trip id="bus111" type="bus_bus" depart="128.56" departLane="best" from="-440048517#0" to="540527321"/>
    <trip id="bus112" type="bus_bus" depart="129.72" departLane="best" from="479168859" to="479168859"/>
    <trip id="bus113" type="bus_bus" depart="130.88" departLane="best" from="-643413273" to="802915852#1"/>
    <trip id="bus114" type="bus_bus" depart="132.04" departLane="best" from="-480678206" to="-645174428#0"/>
    <trip id="bus115" type="bus_bus" depart="133.20" departLane="best" from="584325659#1" to="639392433#1"/>
    <trip id="bus116" type="bus_bus" depart="134.36" departLane="best" from="-671591459#0" to="-634204131"/>
    <trip id="bus118" type="bus_bus" depart="136.67" departLane="best" from="581579789" to="632748640#0"/>
    <trip id="bus119" type="bus_bus" depart="137.83" departLane="best" from="265150842#2" to="540491917"/>
    <trip id="bus120" type="bus_bus" depart="138.99" departLane="best" from="480882778" to="762818427"/>
    <trip id="bus121" type="bus_bus" depart="140.15" departLane="best" from="-646838285#0" to="643426609"/>
    <trip id="bus122" type="bus_bus" depart="141.31" departLane="best" from="-676213618" to="22964462#0"/>
    <trip id="bus125" type="bus_bus" depart="144.78" departLane="best" from="-46650499#2" to="445282984"/>
    <trip id="bus126" type="bus_bus" depart="145.94" departLane="best" from="96681930#2" to="96681930#2"/>
    <trip id="bus128" type="bus_bus" depart="148.25" departLane="best" from="-745675205#1" to="760462332"/>
    <trip id="bus129" type="bus_bus" depart="149.41" departLane="best" from="737645514" to="736532520"/>
    <trip id="bus130" type="bus_bus" depart="150.57" departLane="best" from="178104919" to="-643279429"/>
    <trip id="bus131" type="bus_bus" depart="151.73" departLane="best" from="640319782" to="640319782"/>
    <trip id="bus132" type="bus_bus" depart="152.89" departLane="best" departSpeed="max" from="632237622" to="924347870#1"/>
    <trip id="bus133" type="bus_bus" depart="154.05" departLane="best" from="635374677" to="-152604195"/>
    <trip id="bus134" type="bus_bus" depart="155.20" departLane="best" from="663990776#1" to="-852584633"/>
    <trip id="bus135" type="bus_bus" depart="156.36" departLane="best" from="636915558" to="765287078"/>
    <trip id="bus136" type="bus_bus" depart="157.52" departLane="best" from="-639764856" to="-633617648#1"/>
    <trip id="bus137" type="bus_bus" depart="158.68" departLane="best" from="-75004338" to="631889802"/>
    <trip id="bus138" type="bus_bus" depart="159.84" departLane="best" from="643745428" to="-646733288"/>
    <trip id="bus139" type="bus_bus" depart="161.00" departLane="best" from="633792360#1" to="-741855194"/>
    <trip id="bus140" type="bus_bus" depart="162.15" departLane="best" from="467077238" to="747352710"/>
    <trip id="bus141" type="bus_bus" depart="163.31" departLane="best" from="-533464771" to="-533464771"/>
    <trip id="bus142" type="bus_bus" depart="164.47" departLane="best" from="313194868#1" to="-75063908"/>
    <trip id="bus143" type="bus_bus" depart="165.63" departLane="best" from="-121879148" to="646805109"/>
    <trip id="bus144" type="bus_bus" depart="166.79" departLane="best" from="633847129" to="-730916769"/>
    <trip id="bus145" type="bus_bus" depart="167.94" departLane="best" from="644879986" to="49320703#0"/>
    <trip id="bus146" type="bus_bus" depart="169.10" departLane="best" from="328266308" to="-160185341"/>
    <trip id="bus147" type="bus_bus" depart="170.26" departLane="best" from="-478175607#0" to="737957626"/>
    <trip id="bus148" type="bus_bus" depart="171.42" departLane="best" from="747280754" to="481882943"/>
    <trip id="bus149" type="bus_bus" depart="172.58" departLane="best" from="673113686#0" to="540281876"/>
    <trip id="bus150" type="bus_bus" depart="173.74" departLane="best" from="-640319878" to="-637043404#1"/>
    <trip id="bus151" type="bus_bus" depart="174.89" departLane="best" from="746644126" to="746644126"/>
    <trip id="bus152" type="bus_bus" depart="176.05" departLane="best" from="654199187#1" to="719151711#0"/>
    <trip id="bus153" type="bus_bus" depart="177.21" departLane="best" from="746644126" to="-646879682"/>
    <trip id="bus154" type="bus_bus" depart="178.37" departLane="best" from="-718753058" to="-631270363#0"/>
    <trip id="bus155" type="bus_bus" depart="179.53" departLane="best" from="647086576" to="738315120"/>
    <trip id="bus156" type="bus_bus" depart="180.69" departLane="best" from="244264209#0" to="632829453"/>
    <trip id="bus157" type="bus_bus" depart="181.84" departLane="best" from="-641450802#0" to="75488162"/>
    <trip id="bus158" type="bus_bus" depart="183.00" departLane="best" from="724564759#1" to="836660899"/>
    <trip id="bus159" type="bus_bus" depart="184.16" departLane="best" from="658170979#0" to="737588534"/>
    <trip id="bus161" type="bus_bus" depart="186.48" departLane="best" from="155435645#0" to="75553729#2"/>
    <trip id="bus162" type="bus_bus" depart="187.63" departLane="best" from="655152626" to="723227620"/>
    <trip id="bus163" type="bus_bus" depart="188.79" departLane="best" from="658170979#0" to="-745269536"/>
    <trip id="bus164" type="bus_bus" depart="189.95" departLane="best" from="651032392#1" to="-632498294"/>
    <trip id="bus165" type="bus_bus" depart="191.11" departLane="best" from="727554201" to="718777325"/>
    <trip id="bus166" type="bus_bus" depart="192.27" departLane="best" from="-661346671#1" to="661618463#1"/>
    <trip id="bus168" type="bus_bus" depart="194.58" departLane="best" from="652553894" to="-665249491"/>
    <trip id="bus169" type="bus_bus" depart="195.74" departLane="best" from="-22955696#1" to="-646225644#1"/>
    <trip id="bus171" type="bus_bus" depart="198.06" departLane="best" from="814981179#0" to="-75118701"/>
    <trip id="bus172" type="bus_bus" depart="199.22" departLane="best" from="634148811#0" to="230019725#0"/>
    <trip id="bus174" type="bus_bus" depart="201.53" departLane="best" from="765276862" to="-633610375"/>
    <trip id="bus176" type="bus_bus" depart="203.85" departLane="best" from="808677704#2" to="-743297325#0"/>
    <trip id="bus177" type="bus_bus" depart="205.01" departLane="best" from="-632844669#0" to="34066223#1"/>
    <trip id="bus178" type="bus_bus" depart="206.17" departLane="best" from="644332624#1" to="1057560066#0"/>
    <trip id="bus179" type="bus_bus" depart="207.33" departLane="best" from="631933987" to="480424615"/>
    <trip id="bus180" type="bus_bus" depart="208.48" departLane="best" from="22741869#1" to="539422251"/>
    <trip id="bus181" type="bus_bus" depart="209.64" departLane="best" from="-725850967" to="641132322"/>
    <trip id="bus184" type="bus_bus" depart="213.12" departLane="best" from="644885209" to="638671931#1"/>
    <trip id="bus185" type="bus_bus" depart="214.27" departLane="best" from="174552478" to="-464985869"/>
    <trip id="bus186" type="bus_bus" depart="215.43" departLane="best" from="637020647#1" to="141462462#0"/>
    <trip id="bus187" type="bus_bus" depart="216.59" departLane="best" from="1084099105" to="696655182"/>
    <trip id="bus188" type="bus_bus" depart="217.75" departLane="best" from="643794529#0" to="-857160964#1"/>
    <trip id="bus191" type="bus_bus" depart="221.22" departLane="best" from="-638469885#0" to="262830243#1"/>
    <trip id="bus192" type="bus_bus" depart="222.38" departLane="best" from="765354299#1" to="639549788"/>
    <trip id="bus193" type="bus_bus" depart="223.54" departLane="best" from="747042789#1" to="632473301#0"/>
    <trip id="bus194" type="bus_bus" depart="224.70" departLane="best" from="-933266931" to="482126064#0"/>
    <trip id="bus195" type="bus_bus" depart="225.86" departLane="best" from="-1038616655#0" to="-767413059"/>
    <trip id="bus196" type="bus_bus" depart="227.02" departLane="best" from="33876197" to="539749939"/>
    <trip id="bus197" type="bus_bus" depart="228.17" departLane="best" from="635470431#1" to="464150152#0"/>
    <trip id="bus198" type="bus_bus" depart="229.33" departLane="best" from="35000733" to="-647097915"/>
    <trip id="bus199" type="bus_bus" depart="230.49" departLane="best" from="464822186#0" to="746981306"/>
    <trip id="bus200" type="bus_bus" depart="231.65" departLane="best" from="652569822" to="-644267863"/>
    <trip id="bus201" type="bus_bus" depart="232.81" departLane="best" from="-481671872#0" to="480534937"/>
    <trip id="bus202" type="bus_bus" depart="233.96" departLane="best" from="633610975" to="155435645#0"/>
    <trip id="bus203" type="bus_bus" depart="235.12" departLane="best" from="665226471#1" to="645254760"/>
    <trip id="bus204" type="bus_bus" depart="236.28" departLane="best" from="639258158" to="-661659501"/>
    <trip id="bus205" type="bus_bus" depart="237.44" departLane="best" from="-646653467" to="-22964470#1"/>
    <trip id="bus206" type="bus_bus" depart="238.60" departLane="best" from="-692668876" to="464811058#1"/>
    <trip id="bus207" type="bus_bus" depart="239.76" departLane="best" from="259488769" to="633556670"/>
    <trip id="bus208" type="bus_bus" depart="240.91" departLane="best" from="-646325949" to="640209307#0"/>
    <trip id="bus209" type="bus_bus" depart="242.07" departLane="best" from="477939593#1" to="-681387406"/>
    <trip id="bus210" type="bus_bus" depart="243.23" departLane="best" from="635482762" to="-127648367"/>
    <trip id="bus211" type="bus_bus" depart="244.39" departLane="best" from="645252511" to="646765971"/>
    <trip id="bus212" type="bus_bus" depart="245.55" departLane="best" from="-632505873#0" to="311687117#3"/>
    <trip id="bus213" type="bus_bus" depart="246.71" departLane="best" from="-644820536#0" to="792409280"/>
    <trip id="bus214" type="bus_bus" depart="247.86" departLane="best" from="480697170" to="-34240351"/>
    <trip id="bus215" type="bus_bus" depart="249.02" departLane="best" from="-718306349" to="696665031#1"/>
    <trip id="bus216" type="bus_bus" depart="250.18" departLane="best" departSpeed="max" from="44628876" to="655012829"/>
    <trip id="bus217" type="bus_bus" depart="251.34" departLane="best" from="638056038" to="933121486"/>
    <trip id="bus218" type="bus_bus" depart="252.50" departLane="best" from="584325682#0" to="771553550"/>
    <trip id="bus219" type="bus_bus" depart="253.65" departLane="best" from="744914737" to="632250463"/>
    <trip id="bus220" type="bus_bus" depart="254.81" departLane="best" from="643772252#1" to="479311923"/>
    <trip id="bus222" type="bus_bus" depart="257.13" departLane="best" from="746606863" to="644906137"/>
    <trip id="bus223" type="bus_bus" depart="258.29" departLane="best" from="464822286#1" to="-727511582#0"/>
    <trip id="bus224" type="bus_bus" depart="259.45" departLane="best" from="-711930272" to="634032286#0"/>
    <trip id="bus225" type="bus_bus" depart="260.60" departLane="best" from="646636691" to="480747906"/>
    <trip id="bus226" type="bus_bus" depart="261.76" departLane="best" departSpeed="max" from="633295965" to="-75004341"/>
    <trip id="bus227" type="bus_bus" depart="262.92" departLane="best" from="-479608888" to="-766411569"/>
    <trip id="bus228" type="bus_bus" depart="264.08" departLane="best" from="-749526508#1" to="120106014#1"/>
    <trip id="bus229" type="bus_bus" depart="265.24" departLane="best" from="481669051" to="-639901585"/>
    <trip id="bus230" type="bus_bus" depart="266.40" departLane="best" from="-669653218#0" to="640189047"/>
    <trip id="bus231" type="bus_bus" depart="267.55" departLane="best" from="641121758#1" to="-464804562"/>
    <trip id="bus232" type="bus_bus" depart="268.71" departLane="best" from="25098869#0" to="481689389"/>
    <trip id="bus233" type="bus_bus" depart="269.87" departLane="best" from="261181358" to="-646844093"/>
    <trip id="bus234" type="bus_bus" depart="271.03" departLane="best" departSpeed="max" from="283094435" to="747341577#2"/>
    <trip id="bus235" type="bus_bus" depart="272.19" departLane="best" from="540487543#0" to="640205935"/>
    <trip id="bus237" type="bus_bus" depart="274.50" departLane="best" from="22516215#1" to="-127648381#1"/>
    <trip id="bus238" type="bus_bus" depart="275.66" departLane="best" from="172917134#0" to="646175115#0"/>
    <trip id="bus239" type="bus_bus" depart="276.82" departLane="best" from="713281270" to="782978850"/>
    <trip id="bus240" type="bus_bus" depart="277.98" departLane="best" from="265150838" to="645163798"/>
    <trip id="bus241" type="bus_bus" depart="279.14" departLane="best" from="481882505#1" to="630441639#1"/>
    <trip id="bus242" type="bus_bus" depart="280.29" departLane="best" from="-656128847#0" to="-652315969#0"/>
    <trip id="bus243" type="bus_bus" depart="281.45" departLane="best" from="34240307" to="-238964394#1"/>
    <trip id="bus244" type="bus_bus" depart="282.61" departLane="best" from="159674816#2" to="639585724"/>
    <trip id="bus245" type="bus_bus" depart="283.77" departLane="best" from="241262732" to="-643841614#1"/>
    <trip id="bus246" type="bus_bus" depart="284.93" departLane="best" from="464779332#1" to="-637083489"/>
    <trip id="bus247" type="bus_bus" depart="286.09" departLane="best" from="632939607" to="-230019725#0"/>
    <trip id="bus248" type="bus_bus" depart="287.24" departLane="best" from="22973377" to="536908898"/>
    <trip id="bus249" type="bus_bus" depart="288.40" departLane="best" from="-23101949#1" to="634152603#0"/>
    <trip id="bus250" type="bus_bus" depart="289.56" departLane="best" from="-639890968" to="45070962"/>
    <trip id="bus251" type="bus_bus" depart="290.72" departLane="best" from="-34710314" to="22029896#0"/>
    <trip id="bus252" type="bus_bus" depart="291.88" departLane="best" from="-647097914#0" to="126016881#1"/>
    <trip id="bus253" type="bus_bus" depart="293.03" departLane="best" departSpeed="max" from="646363896" to="22029896#0"/>
    <trip id="bus254" type="bus_bus" depart="294.19" departLane="best" from="645334458" to="669883124"/>
    <trip id="bus256" type="bus_bus" depart="296.51" departLane="best" from="481660834#0" to="481660834#0"/>
    <trip id="bus257" type="bus_bus" depart="297.67" departLane="best" from="996698204" to="16894438#1"/>
    <trip id="bus258" type="bus_bus" depart="298.83" departLane="best" from="634837985" to="647097915"/>
    <trip id="bus260" type="bus_bus" depart="301.14" departLane="best" from="771534653" to="-646425427#1"/>
    <trip id="bus261" type="bus_bus" depart="302.30" departLane="best" from="-198404818#1" to="-641101764"/>
    <trip id="bus262" type="bus_bus" depart="303.46" departLane="best" from="535366465" to="-651867986"/>
    <trip id="bus263" type="bus_bus" depart="304.62" departLane="best" from="640266153#1" to="646696198"/>
    <trip id="bus265" type="bus_bus" depart="306.93" departLane="best" from="645169637" to="-633569919#1"/>
    <trip id="bus266" type="bus_bus" depart="308.09" departLane="best" from="665250503" to="814481474"/>
    <trip id="bus267" type="bus_bus" depart="309.25" departLane="best" from="-632807721" to="-22973689#0"/>
    <trip id="bus268" type="bus_bus" depart="310.41" departLane="best" from="1065816861" to="639549788"/>
    <trip id="bus270" type="bus_bus" depart="312.72" departLane="best" from="643450317" to="-47252183#9"/>
    <trip id="bus271" type="bus_bus" depart="313.88" departLane="best" from="640093272" to="633308067#0"/>
    <trip id="bus272" type="bus_bus" depart="315.04" departLane="best" from="-632165137#1" to="646841500"/>
    <trip id="bus273" type="bus_bus" depart="316.20" departLane="best" from="709278315" to="617971365#1"/>
    <trip id="bus274" type="bus_bus" depart="317.36" departLane="best" from="-635308712#1" to="868983650#1"/>
    <trip id="bus275" type="bus_bus" depart="318.52" departLane="best" from="647127314" to="167681986"/>
    <trip id="bus276" type="bus_bus" depart="319.67" departLane="best" from="33875666#1" to="33875666#1"/>
    <trip id="bus277" type="bus_bus" depart="320.83" departLane="best" from="479538860#1" to="161135989#1"/>
    <trip id="bus278" type="bus_bus" depart="321.99" departLane="best" from="665502261" to="665502261"/>
    <trip id="bus279" type="bus_bus" depart="323.15" departLane="best" from="-632471397" to="802915852#1"/>
    <trip id="bus280" type="bus_bus" depart="324.31" departLane="best" from="633806897" to="667233626#1"/>
    <trip id="bus281" type="bus_bus" depart="325.47" departLane="best" from="641128418#1" to="34066251"/>
    <trip id="bus282" type="bus_bus" depart="326.62" departLane="best" from="644463791" to="814857910#1"/>
    <trip id="bus283" type="bus_bus" depart="327.78" departLane="best" from="-747388425" to="656134875#1"/>
    <trip id="bus285" type="bus_bus" depart="330.10" departLane="best" from="34206801" to="644366628"/>
    <trip id="bus286" type="bus_bus" depart="331.26" departLane="best" from="-747036262" to="-747036262"/>
    <trip id="bus287" type="bus_bus" depart="332.41" departLane="best" from="669890940" to="-481671868"/>
    <trip id="bus288" type="bus_bus" depart="333.57" departLane="best" from="737931550" to="737931550"/>
    <trip id="bus289" type="bus_bus" depart="334.73" departLane="best" from="464207725#2" to="632197852#1"/>
    <trip id="bus290" type="bus_bus" depart="335.89" departLane="best" from="22382092#1" to="-23136174#1"/>
    <trip id="bus291" type="bus_bus" depart="337.05" departLane="best" from="709688610" to="-644902182"/>