<?xml version="1.0" encoding="UTF-8"?>

<!-- generated on 2022-10-13 21:28:31.069748 by osmWebWizard.py UNKNOWN
<configuration>
    <end value="3600"/>
    <fringe-factor value="3.0"/>
    <fringe-start-attributes value="departSpeed=&quot;max&quot;"/>
    <min-distance value="600.0"/>
    <net-file value="/usr/share/sumo/tools/2022-10-13-21-26-38/osm.net.xml"/>
    <period value="2.3659243642503625"/>
    <route-file value="/usr/share/sumo/tools/2022-10-13-21-26-38/osm.truck.rou.xml"/>
    <trip-attributes value="departLane=&quot;best&quot;"/>
    <output-trip-file value="/usr/share/sumo/tools/2022-10-13-21-26-38/osm.truck.trips.xml"/>
    <prefix value="truck"/>
    <validate value="True"/>
    <vclass value="truck"/>
    <vehicle-class value="truck"/>
</configuration>
-->

<!-- generated on 2022-10-13 21:28:26 by Eclipse SUMO duarouter Version 1.14.1
<configuration xmlns:xsi="http://www.w3.org/2001/XMLSchema-instance" xsi:noNamespaceSchemaLocation="http://sumo.dlr.de/xsd/duarouterConfiguration.xsd">

    <input>
        <net-file value="/usr/share/sumo/tools/2022-10-13-21-26-38/osm.net.xml"/>
        <route-files value="/usr/share/sumo/tools/2022-10-13-21-26-38/osm.truck.trips.xml"/>
    </input>

    <output>
        <output-file value="/usr/share/sumo/tools/2022-10-13-21-26-38/osm.truck.trips.xml.tmp"/>
        <alternatives-output value="NUL"/>
        <write-trips value="true"/>
    </output>

    <time>
        <begin value="0"/>
        <end value="3600"/>
    </time>

    <report>
        <no-warnings value="true"/>
        <ignore-errors value="true"/>
        <no-step-log value="true"/>
    </report>

</configuration>
-->

<routes xmlns:xsi="http://www.w3.org/2001/XMLSchema-instance" xsi:noNamespaceSchemaLocation="http://sumo.dlr.de/xsd/routes_file.xsd">
    <vType id="truck_truck" vClass="truck"/>
    <trip id="truck0" type="truck_truck" depart="0.00" departLane="best" from="635168264#0" to="-23101942"/>
    <trip id="truck1" type="truck_truck" depart="2.37" departLane="best" from="-850046997" to="-676769691"/>
    <trip id="truck2" type="truck_truck" depart="4.73" departLane="best" from="644961063" to="639934621#1"/>
    <trip id="truck3" type="truck_truck" depart="7.10" departLane="best" from="745713362" to="-541092675"/>
    <trip id="truck4" type="truck_truck" depart="9.46" departLane="best" from="34240361" to="-254610492"/>
    <trip id="truck5" type="truck_truck" depart="11.83" departLane="best" from="-672014650#0" to="480747909"/>
    <trip id="truck6" type="truck_truck" depart="14.20" departLane="best" from="-238964398" to="-647083024"/>
    <trip id="truck7" type="truck_truck" depart="16.56" departLane="best" from="635753288" to="533232559"/>
    <trip id="truck8" type="truck_truck" depart="18.93" departLane="best" from="-674879230" to="630417485#1"/>
    <trip id="truck9" type="truck_truck" depart="21.29" departLane="best" from="660615489" to="-140088090#1"/>
    <trip id="truck10" type="truck_truck" depart="23.66" departLane="best" from="658222354" to="641124113"/>
    <trip id="truck11" type="truck_truck" depart="26.03" departLane="best" from="173767913" to="-644328616"/>
    <trip id="truck12" type="truck_truck" depart="28.39" departLane="best" from="173391816" to="173391816"/>
    <trip id="truck13" type="truck_truck" depart="30.76" departLane="best" from="-632205921" to="-632505812#0"/>
    <trip id="truck14" type="truck_truck" depart="33.12" departLane="best" from="71213727" to="632506923#1"/>
    <trip id="truck15" type="truck_truck" depart="35.49" departLane="best" from="658252258#1" to="644831721"/>
    <trip id="truck16" type="truck_truck" depart="37.85" departLane="best" from="491082907#1" to="830747831"/>
    <trip id="truck17" type="truck_truck" depart="40.22" departLane="best" from="230019725#0" to="537045039#0"/>
    <trip id="truck19" type="truck_truck" depart="44.95" departLane="best" from="724843097#1" to="571466422"/>
    <trip id="truck20" type="truck_truck" depart="47.32" departLane="best" from="643397241#1" to="-34206798"/>
    <trip id="truck21" type="truck_truck" depart="49.68" departLane="best" from="-692678361#1" to="-98569187"/>
    <trip id="truck22" type="truck_truck" depart="52.05" departLane="best" from="-49126447" to="-718272015"/>
    <trip id="truck23" type="truck_truck" depart="54.42" departLane="best" from="-633791532" to="-855215700#1"/>
    <trip id="truck24" type="truck_truck" depart="56.78" departLane="best" from="634512030#0" to="22674815"/>
    <trip id="truck25" type="truck_truck" depart="59.15" departLane="best" from="22919822" to="-665247107"/>
    <trip id="truck26" type="truck_truck" depart="61.51" departLane="best" from="-789763876#0" to="765287077#1"/>
    <trip id="truck27" type="truck_truck" depart="63.88" departLane="best" departSpeed="max" from="635657747#0" to="632913374"/>
    <trip id="truck28" type="truck_truck" depart="66.25" departLane="best" from="-645223145" to="644815178#0"/>
    <trip id="truck29" type="truck_truck" depart="68.61" departLane="best" from="-644849921" to="22982172#0"/>
    <trip id="truck30" type="truck_truck" depart="70.98" departLane="best" from="933313731#0" to="635250586#1"/>
    <trip id="truck31" type="truck_truck" depart="73.34" departLane="best" departSpeed="max" from="699517861#0" to="647729651#2"/>
    <trip id="truck32" type="truck_truck" depart="75.71" departLane="best" from="-705085310" to="-258867446"/>
    <trip id="truck33" type="truck_truck" depart="78.08" departLane="best" from="159629164#3" to="-784657114"/>
    <trip id="truck34" type="truck_truck" depart="80.44" departLane="best" from="-665758193" to="767765992"/>
    <trip id="truck35" type="truck_truck" depart="82.81" departLane="best" from="737377657#1" to="155923339#3"/>
    <trip id="truck36" type="truck_truck" depart="85.17" departLane="best" from="637695906" to="258777793#0"/>
    <trip id="truck37" type="truck_truck" depart="87.54" departLane="best" from="75063265" to="464822189#0"/>
    <trip id="truck38" type="truck_truck" depart="89.91" departLane="best" from="-76802415#4" to="-744657451"/>
    <trip id="truck39" type="truck_truck" depart="92.27" departLane="best" from="539342392" to="-763587177"/>
    <trip id="truck40" type="truck_truck" depart="94.64" departLane="best" from="597117837" to="746968843"/>
    <trip id="truck41" type="truck_truck" depart="97.00" departLane="best" from="262819990#0" to="-671965417"/>
    <trip id="truck42" type="truck_truck" depart="99.37" departLane="best" from="977589701" to="480918300#0"/>
    <trip id="truck43" type="truck_truck" depart="101.73" departLane="best" from="-635647576#0" to="634084928#1"/>
    <trip id="truck44" type="truck_truck" depart="104.10" departLane="best" from="654766753#1" to="34240337"/>
    <trip id="truck45" type="truck_truck" depart="106.47" departLane="best" from="-464810977" to="23101945"/>
    <trip id="truck46" type="truck_truck" depart="108.83" departLane="best" from="96681930#1" to="481854727"/>
    <trip id="truck47" type="truck_truck" depart="111.20" departLane="best" from="826805718" to="724564759#1"/>
    <trip id="truck48" type="truck_truck" depart="113.56" departLane="best" from="-162268369" to="644332418#1"/>
    <trip id="truck49" type="truck_truck" depart="115.93" departLane="best" from="640177062" to="49320704"/>
    <trip id="truck50" type="truck_truck" depart="118.30" departLane="best" from="-789760304" to="635306881"/>
    <trip id="truck51" type="truck_truck" depart="120.66" departLane="best" from="-638056038" to="399017457"/>
    <trip id="truck52" type="truck_truck" depart="123.03" departLane="best" from="464804573" to="786080661"/>
    <trip id="truck53" type="truck_truck" depart="125.39" departLane="best" from="737200024#0" to="-764905725"/>
    <trip id="truck54" type="truck_truck" depart="127.76" departLane="best" from="480681849" to="-646205377"/>
    <trip id="truck55" type="truck_truck" depart="130.13" departLane="best" from="750202843#1" to="728057204#0"/>
    <trip id="truck56" type="truck_truck" depart="132.49" departLane="best" from="121762748" to="634999250#0"/>
    <trip id="truck57" type="truck_truck" depart="134.86" departLane="best" from="632913373" to="-643879468"/>
    <trip id="truck58" type="truck_truck" depart="137.22" departLane="best" from="646759567#1" to="512870221"/>
    <trip id="truck59" type="truck_truck" depart="139.59" departLane="best" from="649946704#0" to="481882507#0"/>
    <trip id="truck60" type="truck_truck" depart="141.96" departLane="best" from="-103926121" to="162589305#1"/>
    <trip id="truck61" type="truck_truck" depart="144.32" departLane="best" from="-21940432" to="756414974"/>
    <trip id="truck62" type="truck_truck" depart="146.69" departLane="best" from="737957626" to="673798949"/>
    <trip id="truck63" type="truck_truck" depart="149.05" departLane="best" from="-45248317#0" to="-45248317#0"/>
    <trip id="truck64" type="truck_truck" depart="151.42" departLane="best" from="737785889" to="771251463"/>
    <trip id="truck65" type="truck_truck" depart="153.79" departLane="best" from="-541092679" to="479125613"/>
    <trip id="truck66" type="truck_truck" depart="156.15" departLane="best" from="-465056819" to="646723494"/>
    <trip id="truck67" type="truck_truck" depart="158.52" departLane="best" from="646844065" to="-640206600#1"/>
    <trip id="truck68" type="truck_truck" depart="160.88" departLane="best" from="474639288#3" to="536908893"/>
    <trip id="truck69" type="truck_truck" depart="163.25" departLane="best" from="-771213624" to="730086715"/>
    <trip id="truck70" type="truck_truck" depart="165.61" departLane="best" from="34710323" to="-665732226"/>
    <trip id="truck71" type="truck_truck" depart="167.98" departLane="best" from="503693697#2" to="644832151"/>
    <trip id="truck72" type="truck_truck" depart="170.35" departLane="best" from="-650967935" to="152297192#0"/>
    <trip id="truck73" type="truck_truck" depart="172.71" departLane="best" from="96677745#1" to="635757619"/>
    <trip id="truck74" type="truck_truck" depart="175.08" departLane="best" from="444356118#1" to="481055611"/>
    <trip id="truck75" type="truck_truck" depart="177.44" departLane="best" from="-639891396" to="-680277293"/>
    <trip id="truck76" type="truck_truck" depart="179.81" departLane="best" from="173767695" to="630097687"/>
    <trip id="truck77" type="truck_truck" depart="182.18" departLane="best" from="-711930272" to="-672921786#0"/>
    <trip id="truck78" type="truck_truck" depart="184.54" departLane="best" from="-46612315#1" to="634155115"/>
    <trip id="truck79" type="truck_truck" depart="186.91" departLane="best" from="-703049345" to="74860014#0"/>
    <trip id="truck80" type="truck_truck" depart="189.27" departLane="best" from="724251091" to="-465239994#1"/>
    <trip id="truck81" type="truck_truck" depart="191.64" departLane="best" from="-726876427" to="639611804#0"/>
    <trip id="truck82" type="truck_truck" depart="194.01" departLane="best" from="-669742282#0" to="-640266184"/>
    <trip id="truck83" type="truck_truck" depart="196.37" departLane="best" from="764062839#0" to="540766715#1"/>
    <trip id="truck84" type="truck_truck" depart="198.74" departLane="best" departSpeed="max" from="47198828#0" to="652027920"/>
    <trip id="truck86" type="truck_truck" depart="203.47" departLane="best" from="-632979882" to="372072205"/>
    <trip id="truck87" type="truck_truck" depart="205.84" departLane="best" from="34834800#0" to="465239955"/>
    <trip id="truck90" type="truck_truck" depart="212.93" departLane="best" from="274465127#1" to="173767666"/>
    <trip id="truck91" type="truck_truck" depart="215.30" departLane="best" from="-74659026" to="-74659026"/>
    <trip id="truck92" type="truck_truck" depart="217.67" departLane="best" from="-646774761" to="464207688"/>
    <trip id="truck93" type="truck_truck" depart="220.03" departLane="best" from="34240360" to="-868504911"/>
    <trip id="truck94" type="truck_truck" depart="222.40" departLane="best" from="-747036264" to="753799511"/>
    <trip id="truck95" type="truck_truck" depart="224.76" departLane="best" from="45108866#1" to="724595096"/>
    <trip id="truck96" type="truck_truck" depart="227.13" departLane="best" from="536908882#1" to="-34834800#1"/>
    <trip id="truck97" type="truck_truck" depart="229.49" departLane="best" from="98570609#1" to="681297783#1"/>
    <trip id="truck98" type="truck_truck" depart="231.86" departLane="best" from="823725656" to="75414321#1"/>
    <trip id="truck99" type="truck_truck" depart="234.23" departLane="best" from="713250235" to="-644881231"/>
    <trip id="truck100" type="truck_truck" depart="236.59" departLane="best" departSpeed="max" from="479165184" to="-668383601"/>
    <trip id="truck101" type="truck_truck" depart="238.96" departLane="best" from="265150806#1" to="-464207648"/>
    <trip id="truck102" type="truck_truck" depart="241.32" departLane="best" from="230117961" to="888048851#0"/>
    <trip id="truck103" type="truck_truck" depart="243.69" departLane="best" from="-777900407" to="652014646"/>
    <trip id="truck104" type="truck_truck" depart="246.06" departLane="best" from="464810980" to="34240352#0"/>
    <trip id="truck105" type="truck_truck" depart="248.42" departLane="best" from="792847944" to="96678446#1"/>
    <trip id="truck106" type="truck_truck" depart="250.79" departLane="best" from="537409571#2" to="644090115#1"/>
    <trip id="truck107" type="truck_truck" depart="253.15" departLane="best" from="-644331173#0" to="1092306844"/>
    <trip id="truck108" type="truck_truck" depart="255.52" departLane="best" departSpeed="max" from="823178155" to="573253419#1"/>
    <trip id="truck109" type="truck_truck" depart="257.89" departLane="best" from="526887917" to="646200797"/>
    <trip id="truck110" type="truck_truck" depart="260.25" departLane="best" from="-45248317#0" to="596803267"/>
    <trip id="truck111" type="truck_truck" depart="262.62" departLane="best" from="480704267" to="718658672"/>
    <trip id="truck112" type="truck_truck" depart="264.98" departLane="best" from="-644404671" to="809425199#0"/>
    <trip id="truck113" type="truck_truck" depart="267.35" departLane="best" from="-49320703#0" to="-646441840"/>
    <trip id="truck114" type="truck_truck" depart="269.72" departLane="best" from="632165138#0" to="639901269"/>
    <trip id="truck115" type="truck_truck" depart="272.08" departLane="best" from="-724340128" to="-639724510"/>
    <trip id="truck117" type="truck_truck" depart="276.81" departLane="best" from="632151650" to="633590901"/>
    <trip id="truck118" type="truck_truck" depart="279.18" departLane="best" from="34240314" to="594262622#0"/>
    <trip id="truck119" type="truck_truck" depart="281.54" departLane="best" from="481638868#1" to="763600713#0"/>
    <trip id="truck120" type="truck_truck" depart="283.91" departLane="best" from="-652569819#0" to="643869860"/>
    <trip id="truck121" type="truck_truck" depart="286.28" departLane="best" from="-727471588#1" to="258777794#0"/>
    <trip id="truck122" type="truck_truck" depart="288.64" departLane="best" from="639764857#1" to="121753260#0"/>
    <trip id="truck123" type="truck_truck" depart="291.01" departLane="best" from="159674809" to="646324029"/>
    <trip id="truck125" type="truck_truck" depart="295.74" departLane="best" from="98568533#1" to="96682371#1"/>
    <trip id="truck126" type="truck_truck" depart="298.11" departLane="best" from="-47252183#2" to="-667183789"/>
    <trip id="truck127" type="truck_truck" depart="300.47" departLane="best" from="-777900407" to="763026470"/>
    <trip id="truck128" type="truck_truck" depart="302.84" departLane="best" from="229161762" to="-644376320"/>
    <trip id="truck129" type="truck_truck" depart="305.20" departLane="best" from="679651764#0" to="642589835"/>
    <trip id="truck130" type="truck_truck" depart="307.57" departLane="best" from="633178887#1" to="933118013"/>
    <trip id="truck131" type="truck_truck" depart="309.94" departLane="best" from="637069072" to="-152437913#1"/>
    <trip id="truck132" type="truck_truck" depart="312.30" departLane="best" from="665722902#0" to="665722902#0"/>
    <trip id="truck133" type="truck_truck" depart="314.67" departLane="best" from="639372121#1" to="765864211#1"/>
    <trip id="truck134" type="truck_truck" depart="317.03" departLane="best" from="-641061154" to="-639392435"/>
    <trip id="truck135" type="truck_truck" depart="319.40" departLane="best" from="-635191152" to="537071196"/>
    <trip id="truck137" type="truck_truck" depart="324.13" departLane="best" departSpeed="max" from="644068672#0" to="-651081943"/>
    <trip id="truck138" type="truck_truck" depart="326.50" departLane="best" from="634323008#2" to="-765916681"/>
    <trip id="truck139" type="truck_truck" depart="328.86" departLane="best" from="479371790#1" to="74859236#1"/>
    <trip id="truck141" type="truck_truck" depart="333.60" departLane="best" from="34834800#0" to="-849966174"/>
    <trip id="truck142" type="truck_truck" depart="335.96" departLane="best" from="-121879148" to="646945764"/>
    <trip id="truck143" type="truck_truck" depart="338.33" departLane="best" from="634722286#0" to="-763020836"/>
    <trip id="truck144" type="truck_truck" depart="340.69" departLane="best" from="645223145" to="537033775"/>
    <trip id="truck145" type="truck_truck" depart="343.06" departLane="best" from="-479614165#2" to="740624201"/>
    <trip id="truck146" type="truck_truck" depart="345.42" departLane="best" from="74786348" to="533607856#0"/>
    <trip id="truck147" type="truck_truck" depart="347.79" departLane="best" from="680833153#1" to="594262559#0"/>
    <trip id="truck148" type="truck_truck" depart="350.16" departLane="best" from="-643833540#1" to="-640190448"/>
    <trip id="truck149" type="truck_truck" depart="352.52" departLane="best" from="146667511#1" to="747037550#1"/>
    <trip id="truck150" type="truck_truck" depart="354.89" departLane="best" from="655152626" to="724466314"/>
    <trip id="truck151" type="truck_truck" depart="357.25" departLane="best" from="747037550#1" to="-665250502"/>
    <trip id="truck152" type="truck_truck" depart="359.62" departLane="best" from="-747036260" to="-633798401"/>
    <trip id="truck153" type="truck_truck" depart="361.99" departLane="best" from="651012716" to="741897246#1"/>
    <trip id="truck154" type="truck_truck" depart="364.35" departLane="best" from="313211407#0" to="633610975"/>
    <trip id="truck155" type="truck_truck" depart="366.72" departLane="best" from="-644282056" to="758014964#1"/>
    <trip id="truck156" type="truck_truck" depart="369.08" departLane="best" from="725920131-AddedOffRampEdge" to="836739098"/>
    <trip id="truck157" type="truck_truck" depart="371.45" departLane="best" from="661662014" to="739808396"/>
    <trip id="truck159" type="truck_truck" depart="376.18" departLane="best" from="172904279#0" to="760462332"/>
    <trip id="truck160" type="truck_truck" depart="378.55" departLane="best" from="661618463#1" to="-778438450#1"/>
    <trip id="truck161" type="truck_truck" depart="380.91" departLane="best" from="652427366" to="-634833939"/>
    <trip id="truck162" type="truck_truck" depart="383.28" departLane="best" from="730086715" to="723111438"/>
    <trip id="truck163" type="truck_truck" depart="385.65" departLane="best" from="-676840230" to="665499801"/>
    <trip id="truck164" type="truck_truck" depart="388.01" departLane="best" from="464960772#2" to="125774788#0"/>
    <trip id="truck165" type="truck_truck" depart="390.38" departLane="best" from="655144908#1" to="-691839259#0"/>
    <trip id="truck166" type="truck_truck" depart="392.74" departLane="best" from="-22982180#2" to="-646844064"/>
    <trip id="truck167" type="truck_truck" depart="395.11" departLane="best" from="170502602" to="725437726"/>
    <trip id="truck168" type="truck_truck" depart="397.48" departLane="best" from="815130130" to="-872846754#2"/>
    <trip id="truck169" type="truck_truck" depart="399.84" departLane="best" from="635318174#0" to="261170719"/>
    <trip id="truck170" type="truck_truck" depart="402.21" departLane="best" from="853102671#0" to="49126443#1"/>
    <trip id="truck171" type="truck_truck" depart="404.57" departLane="best" from="765864211#1" to="-639392434"/>
    <trip id="truck172" type="truck_truck" depart="406.94" departLane="best" from="826356698#0" to="-646203981"/>
    <trip id="truck173" type="truck_truck" depart="409.30" departLane="best" from="812743064" to="-767732099"/>
    <trip id="truck175" type="truck_truck" depart="414.04" departLane="best" from="644741145#0" to="154268200"/>
    <trip id="truck176" type="truck_truck" depart="416.40" departLane="best" from="632748640#0" to="480922575"/>
    <trip id="truck177" type="truck_truck" depart="418.77" departLane="best" from="238964429" to="546904841#2"/>
    <trip id="truck179" type="truck_truck" depart="423.50" departLane="best" from="493592537" to="644246719"/>
    <trip id="truck180" type="truck_truck" depart="425.87" departLane="best" from="645243584" to="639709633"/>
    <trip id="truck181" type="truck_truck" depart="428.23" departLane="best" from="22675313#0" to="-465052407#1"/>
    <trip id="truck183" type="truck_truck" depart="432.96" departLane="best" from="157566901" to="711947287"/>
    <trip id="truck184" type="truck_truck" depart="435.33" departLane="best" from="644331174" to="121762749#1"/>
    <trip id="truck185" type="truck_truck" depart="437.70" departLane="best" from="149965084#1" to="314353938#1"/>
    <trip id="truck186" type="truck_truck" depart="440.06" departLane="best" from="265150889#0" to="109104573#0"/>
    <trip id="truck187" type="truck_truck" depart="442.43" departLane="best" from="-640203825" to="34240306"/>
    <trip id="truck188" type="truck_truck" depart="444.79" departLane="best" from="766133526" to="639958382#0"/>
    <trip id="truck189" type="truck_truck" depart="447.16" departLane="best" from="747369067" to="633436229#1"/>
    <trip id="truck190" type="truck_truck" depart="449.53" departLane="best" from="121883639#1" to="535363231#1"/>
    <trip id="truck191" type="truck_truck" depart="451.89" departLane="best" from="37552602" to="573704876"/>
    <trip id="truck192" type="truck_truck" depart="454.26" departLane="best" from="637365371#0" to="465052407#1"/>
    <trip id="truck194" type="truck_truck" depart="458.99" departLane="best" from="47252183#14" to="747308781"/>
    <trip id="truck195" type="truck_truck" depart="461.36" departLane="best" from="655152057#2" to="-644993743"/>
    <trip id="truck196" type="truck_truck" depart="463.72" departLane="best" from="-540471748#1" to="480940913"/>
    <trip id="truck197" type="truck_truck" depart="466.09" departLane="best" from="665776852" to="646278956"/>
    <trip id="truck198" type="truck_truck" depart="468.45" departLane="best" from="639871089#1" to="-680270611#0"/>
    <trip id="truck199" type="truck_truck" depart="470.82" departLane="best" from="-647096981" to="-230019723#2"/>
    <trip id="truck201" type="truck_truck" depart="475.55" departLane="best" from="713308947#0" to="-46649290#2"/>
    <trip id="truck202" type="truck_truck" depart="477.92" departLane="best" from="33997675#1" to="634148889#0"/>
    <trip id="truck203" type="truck_truck" depart="480.28" departLane="best" from="-646872017#2" to="641096299#0"/>
    <trip id="truck204" type="truck_truck" depart="482.65" departLane="best" from="480306311" to="480306311"/>
    <trip id="truck205" type="truck_truck" depart="485.01" departLane="best" from="637728654" to="-126946372"/>
    <trip id="truck206" type="truck_truck" depart="487.38" departLane="best" from="646273422" to="646886085"/>
    <trip id="truck207" type="truck_truck" depart="489.75" departLane="best" from="-634751130#0" to="34710334"/>
    <trip id="truck208" type="truck_truck" depart="492.11" departLane="best" from="-646189566#1" to="795133187"/>
    <trip id="truck209" type="truck_truck" depart="494.48" departLane="best" from="481059869" to="-34710328"/>
    <trip id="truck210" type="truck_truck" depart="496.84" departLane="best" from="-746968839" to="712170926"/>
    <trip id="truck211" type="truck_truck" depart="499.21" departLane="best" from="464822179#0" to="655809329"/>
    <trip id="truck212" type="truck_truck" depart="501.58" departLane="best" from="639568320#0" to="933143292"/>
    <trip id="truck213" type="truck_truck" depart="503.94" departLane="best" from="632174901" to="780736207"/>
    <trip id="truck214" type="truck_truck" depart="506.31" departLane="best" from="745687341" to="633218568"/>
    <trip id="truck216" type="truck_truck" depart="511.04" departLane="best" from="673744383#1" to="535363230#1"/>
    <trip id="truck217" type="truck_truck" depart="513.41" departLane="best" from="746968829" to="645294870#1"/>
    <trip id="truck218" type="truck_truck" depart="515.77" departLane="best" from="-74659025#2" to="634733501"/>
    <trip id="truck219" type="truck_truck" depart="518.14" departLane="best" from="646844065" to="481623217#2"/>
    <trip id="truck220" type="truck_truck" depart="520.50" departLane="best" from="634070264" to="-836701464#1"/>
    <trip id="truck221" type="truck_truck" depart="522.87" departLane="best" from="-481079136#1" to="-963854092"/>
    <trip id="truck222" type="truck_truck" depart="525.24" departLane="best" from="-823357701#1" to="160185255#1"/>
    <trip id="truck223" type="truck_truck" depart="527.60" departLane="best" from="512870222#0" to="-641124406"/>
    <trip id="truck224" type="truck_truck" depart="529.97" departLane="best" from="-715636098" to="640325487"/>
    <trip id="truck225" type="truck_truck" depart="532.33" departLane="best" from="643451874" to="-464810977"/>
    <trip id="truck226" type="truck_truck" depart="534.70" departLane="best" from="322246997" to="527665610"/>
    <trip id="truck227" type="truck_truck" depart="537.06" departLane="best" from="34206751#0" to="-657639193"/>
    <trip id="truck228" type="truck_truck" depart="539.43" departLane="best" from="34240330#1" to="74809487"/>
    <trip id="truck229" type="truck_truck" depart="541.80" departLane="best" from="596709790#1" to="641072897"/>
    <trip id="truck230" type="truck_truck" depart="544.16" departLane="best" from="721703576" to="646843904#1"/>
    <trip id="truck231" type="truck_truck" depart="546.53" departLane="best" from="23102032#1" to="-127648376#0"/>
    <trip id="truck233" type="truck_truck" depart="551.26" departLane="best" from="718777325" to="785757432"/>
    <trip id="truck234" type="truck_truck" depart="553.63" departLane="best" from="34240311" to="646198774"/>
    <trip id="truck235" type="truck_truck" depart="555.99" departLane="best" from="533459353" to="632504699#1"/>
    <trip id="truck236" type="truck_truck" depart="558.36" departLane="best" from="-674881697" to="-672009345"/>
    <trip id="truck237" type="truck_truck" depart="560.72" departLane="best" from="41895459" to="-245003022#1"/>
    <trip id="truck239" type="truck_truck" depart="565.46" departLane="best" from="28581258#2" to="-644864556"/>
    <trip id="truck240" type="truck_truck" depart="567.82" departLane="best" departSpeed="max" from="465697506#0" to="-640191058#0"/>
    <trip id="truck241" type="truck_truck" depart="570.19" departLane="best" from="633798220" to="-238964399#0"/>
    <trip id="truck242" type="truck_truck" depart="572.55" departLane="best" from="258777793#1" to="258777793#1"/>
    <trip id="truck243" type="truck_truck" depart="574.92" departLane="best" from="-238964430#1" to="635400843#0"/>
    <trip id="truck244" type="truck_truck" depart="577.29" departLane="best" from="-641096299#0" to="464960770"/>
    <trip id="truck245" type="truck_truck" depart="579.65" departLane="best" from="-34835019" to="22973692#5"/>
    <trip id="truck246" type="truck_truck" depart="582.02" departLane="best" from="-666695717" to="167688569#1"/>
    <trip id="truck247" type="truck_truck" depart="584.38" departLane="best" from="646729524" to="22973692#5"/>
    <trip id="truck248" type="truck_truck" depart="586.75" departLane="best" from="646324811" to="646324811"/>
    <trip id="truck249" type="truck_truck" depart="589.12" departLane="best" from="-749512950" to="-50338614#1"/>
    <trip id="truck250" type="truck_truck" depart="591.48" departLane="best" from="-218253805#1" to="512870222#0"/>
    <trip id="truck251" type="truck_truck" depart="593.85" departLane="best" from="996698204" to="175546652"/>
    <trip id="truck252" type="truck_truck" depart="596.21" departLane="best" from="636702352#0" to="651057197#0"/>
    <trip id="truck253" type="truck_truck" depart="598.58" departLane="best" from="636909268#0" to="646391290#1"/>
    <trip id="truck254" type="truck_truck" depart="600.94" departLane="best" from="778730996" to="-647086408"/>
    <trip id="truck255" type="truck_truck" depart="603.31" departLane="best" from="-227775127" to="-227775127"/>
    <trip id="truck256" type="truck_truck" depart="605.68" departLane="best" from="-640183997#1" to="639674423#1"/>
    <trip id="truck257" type="truck_truck" depart="608.04" departLane="best" from="539428650#1" to="-671197300"/>
    <trip id="truck258" type="truck_truck" depart="610.41" departLane="best" from="641149565" to="646847948"/>
    <trip id="truck260" type="truck_truck" depart="615.14" departLane="best" from="646200798" to="-639376060#0"/>
    <trip id="truck261" type="truck_truck" depart="617.51" departLane="best" from="666009287#0" to="814873292"/>
    <trip id="truck262" type="truck_truck" depart="619.87" departLane="best" from="-635376995" to="-23102036#1"/>
    <trip id="truck263" type="truck_truck" depart="622.24" departLane="best" from="639958382#1" to="639958382#1"/>
    <trip id="truck264" type="truck_truck" depart="624.60" departLane="best" from="795133181#0" to="258869355"/>
    <trip id="truck265" type="truck_truck" depart="626.97" departLane="best" from="643869142" to="-479205001"/>
    <trip id="truck266" type="truck_truck" depart="629.34" departLane="best" from="640269082#1" to="634082339#0"/>