<?xml version="1.0" encoding="UTF-8"?>

<!-- generated on 2022-10-13 21:28:13.148245 by osmWebWizard.py UNKNOWN
<configuration>
    <allow-fringe.min-length value="1000.0"/>
    <end value="3600"/>
    <fringe-factor value="5.0"/>
    <fringe-start-attributes value="departSpeed=&quot;max&quot;"/>
    <lanes value="True"/>
    <min-distance value="300.0"/>
    <net-file value="/usr/share/sumo/tools/2022-10-13-21-26-38/osm.net.xml"/>
    <period value="0.7886414547501208"/>
    <route-file value="/usr/share/sumo/tools/2022-10-13-21-26-38/osm.passenger.rou.xml"/>
    <trip-attributes value="departLane=&quot;best&quot;"/>
    <output-trip-file value="/usr/share/sumo/tools/2022-10-13-21-26-38/osm.passenger.trips.xml"/>
    <prefix value="veh"/>
    <validate value="True"/>
    <vehicle-class value="passenger"/>
</configuration>
-->

<!-- generated on 2022-10-13 21:27:59 by Eclipse SUMO duarouter Version 1.14.1
<configuration xmlns:xsi="http://www.w3.org/2001/XMLSchema-instance" xsi:noNamespaceSchemaLocation="http://sumo.dlr.de/xsd/duarouterConfiguration.xsd">

    <input>
        <net-file value="/usr/share/sumo/tools/2022-10-13-21-26-38/osm.net.xml"/>
        <route-files value="/usr/share/sumo/tools/2022-10-13-21-26-38/osm.passenger.trips.xml"/>
    </input>

    <output>
        <output-file value="/usr/share/sumo/tools/2022-10-13-21-26-38/osm.passenger.trips.xml.tmp"/>
        <alternatives-output value="NUL"/>
        <write-trips value="true"/>
    </output>

    <time>
        <begin value="0"/>
        <end value="3600"/>
    </time>

    <report>
        <no-warnings value="true"/>
        <ignore-errors value="true"/>
        <no-step-log value="true"/>
    </report>

</configuration>
-->

<routes xmlns:xsi="http://www.w3.org/2001/XMLSchema-instance" xsi:noNamespaceSchemaLocation="http://sumo.dlr.de/xsd/routes_file.xsd">
    <vType id="veh_passenger" vClass="passenger"/>
    <trip id="veh0" type="veh_passenger" depart="0.00" departLane="best" from="636915558" to="-28581180#1"/>
    <trip id="veh2" type="veh_passenger" depart="1.58" departLane="best" from="646877994#1" to="640295545"/>
    <trip id="veh3" type="veh_passenger" depart="2.37" departLane="best" from="74809481" to="-639565126"/>
    <trip id="veh4" type="veh_passenger" depart="3.15" departLane="best" from="479541555#1" to="-33997678#1"/>
    <trip id="veh5" type="veh_passenger" depart="3.94" departLane="best" from="1084099105" to="533989674#0"/>
    <trip id="veh6" type="veh_passenger" depart="4.73" departLane="best" from="-325897355" to="-766153829"/>
    <trip id="veh7" type="veh_passenger" depart="5.52" departLane="best" from="639060515#0" to="594262529"/>
    <trip id="veh8" type="veh_passenger" depart="6.31" departLane="best" from="111290122" to="633265315"/>
    <trip id="veh9" type="veh_passenger" depart="7.10" departLane="best" from="670640787#2" to="-159677027#1"/>
    <trip id="veh10" type="veh_passenger" depart="7.89" departLane="best" from="669870942" to="644339526"/>
    <trip id="veh11" type="veh_passenger" depart="8.68" departLane="best" from="325897347#2" to="-654767793"/>
    <trip id="veh12" type="veh_passenger" depart="9.46" departLane="best" from="795085928" to="28581166#1"/>
    <trip id="veh13" type="veh_passenger" depart="10.25" departLane="best" from="-640173907" to="-640173907"/>
    <trip id="veh15" type="veh_passenger" depart="11.83" departLane="best" from="669886912" to="646742588"/>
    <trip id="veh16" type="veh_passenger" depart="12.62" departLane="best" from="540515310" to="828363191"/>
    <trip id="veh17" type="veh_passenger" depart="13.41" departLane="best" from="464779332#1" to="630097687"/>
    <trip id="veh18" type="veh_passenger" depart="14.20" departLane="best" from="713297484" to="634707164#1"/>
    <trip id="veh19" type="veh_passenger" depart="14.98" departLane="best" from="737674580" to="632753447#0"/>
    <trip id="veh20" type="veh_passenger" depart="15.77" departLane="best" from="644741145#0" to="-464804570#1"/>
    <trip id="veh21" type="veh_passenger" depart="16.56" departLane="best" departSpeed="max" from="136100334#0" to="21944709#0"/>
    <trip id="veh22" type="veh_passenger" depart="17.35" departLane="best" from="-635338580#1" to="141464486#1"/>
    <trip id="veh23" type="veh_passenger" depart="18.14" departLane="best" from="-641100408" to="174552502"/>
    <trip id="veh24" type="veh_passenger" depart="18.93" departLane="best" from="635670585#2" to="41894668#1"/>
    <trip id="veh25" type="veh_passenger" depart="19.72" departLane="best" from="44879378" to="44879378"/>
    <trip id="veh26" type="veh_passenger" depart="20.50" departLane="best" from="173767908#3" to="765571712#2"/>
    <trip id="veh27" type="veh_passenger" depart="21.29" departLane="best" from="638469885#0" to="634148889#0"/>
    <trip id="veh28" type="veh_passenger" depart="22.08" departLane="best" from="646730748#0" to="646730748#0"/>
    <trip id="veh29" type="veh_passenger" depart="22.87" departLane="best" from="-671591459#0" to="464307264#1"/>
    <trip id="veh30" type="veh_passenger" depart="23.66" departLane="best" from="914919697" to="637343864"/>
    <trip id="veh31" type="veh_passenger" depart="24.45" departLane="best" from="630442125" to="642589835"/>
    <trip id="veh33" type="veh_passenger" depart="26.03" departLane="best" from="140386263" to="-34206782"/>
    <trip id="veh34" type="veh_passenger" depart="26.81" departLane="best" from="23126399#1" to="173767778#2"/>
    <trip id="veh35" type="veh_passenger" depart="27.60" departLane="best" from="-962109890" to="769217783"/>
    <trip id="veh36" type="veh_passenger" depart="28.39" departLane="best" from="745677663" to="22982172#0"/>
    <trip id="veh37" type="veh_passenger" depart="29.18" departLane="best" from="639549988#2" to="466551641"/>
    <trip id="veh38" type="veh_passenger" depart="29.97" departLane="best" departSpeed="max" from="751804398" to="480936815#0"/>
    <trip id="veh39" type="veh_passenger" depart="30.76" departLane="best" from="173767778#0" to="162589260"/>
    <trip id="veh40" type="veh_passenger" depart="31.55" departLane="best" from="631935466" to="173767645#1"/>
    <trip id="veh41" type="veh_passenger" depart="32.33" departLane="best" from="633004070#1" to="749526509"/>
    <trip id="veh43" type="veh_passenger" depart="33.91" departLane="best" from="975272026" to="536908881"/>
    <trip id="veh44" type="veh_passenger" depart="34.70" departLane="best" from="-639996288" to="-464811045#3"/>
    <trip id="veh45" type="veh_passenger" depart="35.49" departLane="best" from="-643826688" to="635481852#1"/>
    <trip id="veh46" type="veh_passenger" depart="36.28" departLane="best" from="661662014" to="479544356"/>
    <trip id="veh47" type="veh_passenger" depart="37.07" departLane="best" from="-544439299#1" to="464804516"/>
    <trip id="veh48" type="veh_passenger" depart="37.85" departLane="best" from="96670625#3" to="539677401#1"/>
    <trip id="veh49" type="veh_passenger" depart="38.64" departLane="best" from="825797683#1" to="737588535"/>
    <trip id="veh50" type="veh_passenger" depart="39.43" departLane="best" from="-176204423" to="646261561"/>
    <trip id="veh51" type="veh_passenger" depart="40.22" departLane="best" from="641129074#1" to="542144663#1"/>
    <trip id="veh52" type="veh_passenger" depart="41.01" departLane="best" from="173767908#1" to="637687643#0"/>
    <trip id="veh53" type="veh_passenger" depart="41.80" departLane="best" from="-643864073" to="480657519#1"/>
    <trip id="veh55" type="veh_passenger" depart="43.38" departLane="best" from="745621325#2" to="173767652"/>
    <trip id="veh56" type="veh_passenger" depart="44.16" departLane="best" from="50338614#0" to="50338614#0"/>
    <trip id="veh57" type="veh_passenger" depart="44.95" departLane="best" from="751462777#0" to="743294537#1"/>
    <trip id="veh58" type="veh_passenger" depart="45.74" departLane="best" departSpeed="max" from="22694034#0" to="637043404#2"/>
    <trip id="veh59" type="veh_passenger" depart="46.53" departLane="best" from="634089427#0" to="-650892166#1"/>
    <trip id="veh60" type="veh_passenger" depart="47.32" departLane="best" from="654492805#1" to="547650656"/>
    <trip id="veh61" type="veh_passenger" depart="48.11" departLane="best" from="-104143841#1" to="25098869#0"/>
    <trip id="veh62" type="veh_passenger" depart="48.90" departLane="best" from="-241113057#0" to="762759838"/>
    <trip id="veh63" type="veh_passenger" depart="49.68" departLane="best" from="745797085" to="718294657"/>
    <trip id="veh64" type="veh_passenger" depart="50.47" departLane="best" from="22945150" to="-481079137#0"/>
    <trip id="veh65" type="veh_passenger" depart="51.26" departLane="best" from="745713362" to="778429139"/>
    <trip id="veh66" type="veh_passenger" depart="52.05" departLane="best" from="-639550191" to="481882505#1"/>
    <trip id="veh67" type="veh_passenger" depart="52.84" departLane="best" from="-632462993" to="654224944#1"/>
    <trip id="veh68" type="veh_passenger" depart="53.63" departLane="best" from="654850831" to="-645174046#1"/>
    <trip id="veh69" type="veh_passenger" depart="54.42" departLane="best" departSpeed="max" from="481651001" to="603128880"/>
    <trip id="veh70" type="veh_passenger" depart="55.20" departLane="best" from="173767778#1" to="744894405"/>
    <trip id="veh71" type="veh_passenger" depart="55.99" departLane="best" from="479606959" to="-933706509#1"/>
    <trip id="veh72" type="veh_passenger" depart="56.78" departLane="best" from="542144666#1" to="646743642"/>
    <trip id="veh73" type="veh_passenger" depart="57.57" departLane="best" from="-792847948" to="22964193"/>
    <trip id="veh74" type="veh_passenger" depart="58.36" departLane="best" from="965114830-AddedOffRampEdge" to="639300696"/>
    <trip id="veh75" type="veh_passenger" depart="59.15" departLane="best" from="480683662#0" to="537409576"/>
    <trip id="veh76" type="veh_passenger" depart="59.94" departLane="best" from="-644832151" to="121175256"/>
    <trip id="veh77" type="veh_passenger" depart="60.73" departLane="best" from="314385986#1" to="633221172"/>
    <trip id="veh78" type="veh_passenger" depart="61.51" departLane="best" from="141464489" to="1070480599"/>
    <trip id="veh79" type="veh_passenger" depart="62.30" departLane="best" from="-632744789" to="635529128"/>
    <trip id="veh80" type="veh_passenger" depart="63.09" departLane="best" from="140088088#4" to="75044390"/>
    <trip id="veh81" type="veh_passenger" depart="63.88" departLane="best" from="737532562#1" to="-632465644"/>
    <trip id="veh82" type="veh_passenger" depart="64.67" departLane="best" from="159629977#1" to="640191058#1"/>
    <trip id="veh83" type="veh_passenger" depart="65.46" departLane="best" from="1000683667#0" to="-646157140#2"/>
    <trip id="veh84" type="veh_passenger" depart="66.25" departLane="best" from="765287075" to="632468295#1"/>
    <trip id="veh85" type="veh_passenger" depart="67.03" departLane="best" from="481626375" to="658252256"/>
    <trip id="veh86" type="veh_passenger" depart="67.82" departLane="best" from="669886913" to="-747864322#0"/>
    <trip id="veh87" type="veh_passenger" depart="68.61" departLane="best" from="-640266007#0" to="480520609"/>
    <trip id="veh88" type="veh_passenger" depart="69.40" departLane="best" from="479612874#1" to="481060986"/>
    <trip id="veh89" type="veh_passenger" depart="70.19" departLane="best" from="646662732" to="640254205#1"/>
    <trip id="veh90" type="veh_passenger" depart="70.98" departLane="best" from="853604800" to="-640268864"/>
    <trip id="veh91" type="veh_passenger" depart="71.77" departLane="best" from="477957449" to="314353938#1"/>
    <trip id="veh92" type="veh_passenger" depart="72.56" departLane="best" from="737674580" to="167648617"/>
    <trip id="veh93" type="veh_passenger" depart="73.34" departLane="best" from="-75062956#1" to="480893591"/>
    <trip id="veh94" type="veh_passenger" depart="74.13" departLane="best" from="479541555#1" to="174555658"/>
    <trip id="veh95" type="veh_passenger" depart="74.92" departLane="best" from="16894437" to="75479641"/>
    <trip id="veh96" type="veh_passenger" depart="75.71" departLane="best" from="480743245" to="737588543"/>
    <trip id="veh97" type="veh_passenger" depart="76.50" departLane="best" from="594262628#0" to="-465013329#1"/>
    <trip id="veh98" type="veh_passenger" depart="77.29" departLane="best" from="98570608#0" to="720086820#0"/>
    <trip id="veh99" type="veh_passenger" depart="78.08" departLane="best" from="822041775" to="756133444"/>
    <trip id="veh101" type="veh_passenger" depart="79.65" departLane="best" from="481849635" to="-966332459"/>
    <trip id="veh102" type="veh_passenger" depart="80.44" departLane="best" from="477932025" to="-481801816"/>
    <trip id="veh103" type="veh_passenger" depart="81.23" departLane="best" from="464804502#0" to="862005618#1"/>
    <trip id="veh104" type="veh_passenger" depart="82.02" departLane="best" from="173767778#2" to="658251316#1"/>
    <trip id="veh105" type="veh_passenger" depart="82.81" departLane="best" from="480921268#1" to="479606959"/>
    <trip id="veh106" type="veh_passenger" depart="83.60" departLane="best" from="795119057" to="96667538#1"/>
    <trip id="veh107" type="veh_passenger" depart="84.38" departLane="best" from="630417485#0" to="646200063"/>
    <trip id="veh108" type="veh_passenger" depart="85.17" departLane="best" from="-658170973" to="22562896"/>
    <trip id="veh110" type="veh_passenger" depart="86.75" departLane="best" from="571466434" to="651057196#0"/>
    <trip id="veh111" type="veh_passenger" depart="87.54" departLane="best" from="-481853590" to="633022302"/>
    <trip id="veh112" type="veh_passenger" depart="88.33" departLane="best" from="512870362#0" to="728698456"/>
    <trip id="veh113" type="veh_passenger" depart="89.12" departLane="best" from="-665461172" to="812446200"/>
    <trip id="veh114" type="veh_passenger" depart="89.91" departLane="best" from="-635391787#1" to="-745190355"/>
    <trip id="veh116" type="veh_passenger" depart="91.48" departLane="best" from="155926154#0" to="-644463789#2"/>
    <trip id="veh117" type="veh_passenger" depart="92.27" departLane="best" from="747369738" to="162272901#1"/>
    <trip id="veh118" type="veh_passenger" depart="93.06" departLane="best" from="633436229#1" to="634730022#0"/>
    <trip id="veh119" type="veh_passenger" depart="93.85" departLane="best" from="479390113#1" to="633015357"/>
    <trip id="veh120" type="veh_passenger" depart="94.64" departLane="best" from="538766133#2" to="764940588#1"/>
    <trip id="veh121" type="veh_passenger" depart="95.43" departLane="best" from="-837044097" to="646148682"/>
    <trip id="veh123" type="veh_passenger" depart="97.00" departLane="best" from="640209307#0" to="22694106"/>
    <trip id="veh124" type="veh_passenger" depart="97.79" departLane="best" from="23135318#1" to="651981455"/>
    <trip id="veh125" type="veh_passenger" depart="98.58" departLane="best" from="-633436229#1" to="480934380#2"/>
    <trip id="veh126" type="veh_passenger" depart="99.37" departLane="best" from="98568530" to="96678264"/>
    <trip id="veh127" type="veh_passenger" depart="100.16" departLane="best" from="-633556669#2" to="-961864249"/>
    <trip id="veh128" type="veh_passenger" depart="100.95" departLane="best" from="173767778#2" to="764062839#0"/>
    <trip id="veh129" type="veh_passenger" depart="101.73" departLane="best" from="746606863" to="74659021#2"/>
    <trip id="veh130" type="veh_passenger" depart="102.52" departLane="best" departSpeed="max" from="44839309" to="-665220471"/>
    <trip id="veh131" type="veh_passenger" depart="103.31" departLane="best" from="718789819#0" to="644815178#1"/>
    <trip id="veh132" type="veh_passenger" depart="104.10" departLane="best" from="634151261" to="876159273"/>
    <trip id="veh133" type="veh_passenger" depart="104.89" departLane="best" from="639402382" to="-161886048#0"/>
    <trip id="veh134" type="veh_passenger" depart="105.68" departLane="best" from="684059277#0" to="22675313#3"/>
    <trip id="veh135" type="veh_passenger" depart="106.47" departLane="best" from="639915768#1" to="639915768#1"/>
    <trip id="veh137" type="veh_passenger" depart="108.04" departLane="best" from="-643464491#1" to="-643464491#1"/>
    <trip id="veh138" type="veh_passenger" depart="108.83" departLane="best" from="173914639#1" to="634037795#1"/>
    <trip id="veh139" type="veh_passenger" depart="109.62" departLane="best" from="646148683" to="-796834861"/>
    <trip id="veh140" type="veh_passenger" depart="110.41" departLane="best" from="635645317#0" to="173767659#0"/>
    <trip id="veh141" type="veh_passenger" depart="111.20" departLane="best" from="481882504" to="75044390"/>
    <trip id="veh142" type="veh_passenger" depart="111.99" departLane="best" from="726184848" to="-640006277#0"/>
    <trip id="veh143" type="veh_passenger" depart="112.78" departLane="best" from="479612874#1" to="174552473"/>
    <trip id="veh144" type="veh_passenger" depart="113.56" departLane="best" from="-126946352" to="655215233"/>
    <trip id="veh145" type="veh_passenger" depart="114.35" departLane="best" from="635746344#1" to="173767567"/>
    <trip id="veh146" type="veh_passenger" depart="115.14" departLane="best" from="647127314" to="627705624"/>
    <trip id="veh147" type="veh_passenger" depart="115.93" departLane="best" from="480425899" to="-170796329#1"/>
    <trip id="veh149" type="veh_passenger" depart="117.51" departLane="best" from="750115335" to="594262552"/>
    <trip id="veh151" type="veh_passenger" depart="119.08" departLane="best" from="-646965007#1" to="-645146774"/>
    <trip id="veh153" type="veh_passenger" depart="120.66" departLane="best" from="665472295" to="737588534"/>
    <trip id="veh154" type="veh_passenger" depart="121.45" departLane="best" from="75004340" to="-904125353"/>
    <trip id="veh155" type="veh_passenger" depart="122.24" departLane="best" from="168243073#1" to="-641118823"/>
    <trip id="veh157" type="veh_passenger" depart="123.82" departLane="best" from="478165029" to="634991901#1"/>
    <trip id="veh158" type="veh_passenger" depart="124.61" departLane="best" from="-657639193" to="-657639193"/>
    <trip id="veh160" type="veh_passenger" depart="126.18" departLane="best" from="672214690" to="746628792#1"/>
    <trip id="veh161" type="veh_passenger" depart="126.97" departLane="best" from="-28581287#1" to="646968172"/>
    <trip id="veh162" type="veh_passenger" depart="127.76" departLane="best" from="265150742#1" to="763017520"/>
    <trip id="veh163" type="veh_passenger" depart="128.55" departLane="best" from="666925399" to="738258068#0"/>
    <trip id="veh164" type="veh_passenger" depart="129.34" departLane="best" from="672214690" to="173767760#0"/>
    <trip id="veh165" type="veh_passenger" depart="130.13" departLane="best" from="659435749#2" to="-643465952#1"/>
    <trip id="veh166" type="veh_passenger" depart="130.91" departLane="best" from="744894404" to="736602172"/>
    <trip id="veh168" type="veh_passenger" depart="132.49" departLane="best" from="665250503" to="121897407#0"/>
    <trip id="veh169" type="veh_passenger" depart="133.28" departLane="best" from="-262830247" to="-75065602"/>
    <trip id="veh170" type="veh_passenger" depart="134.07" departLane="best" from="259338718" to="738315120"/>
    <trip id="veh171" type="veh_passenger" depart="134.86" departLane="best" from="814994000" to="174555659-AddedOnRampEdge"/>
    <trip id="veh172" type="veh_passenger" depart="135.65" departLane="best" from="637050768#1" to="637050768#1"/>
    <trip id="veh173" type="veh_passenger" depart="136.43" departLane="best" from="842732513" to="541934200#0"/>
    <trip id="veh174" type="veh_passenger" depart="137.22" departLane="best" from="-644126005" to="-644126005"/>
    <trip id="veh175" type="veh_passenger" depart="138.01" departLane="best" from="824520388#0" to="-724885265"/>
    <trip id="veh176" type="veh_passenger" depart="138.80" departLane="best" from="813039986" to="173767675#1"/>
    <trip id="veh177" type="veh_passenger" depart="139.59" departLane="best" from="-643747471" to="480656763#1"/>
    <trip id="veh178" type="veh_passenger" depart="140.38" departLane="best" from="646645333#1" to="22973598"/>
    <trip id="veh179" type="veh_passenger" depart="141.17" departLane="best" from="634032285#0" to="536908960#1"/>
    <trip id="veh180" type="veh_passenger" depart="141.96" departLane="best" from="464960769" to="632743190"/>
    <trip id="veh181" type="veh_passenger" depart="142.74" departLane="best" from="173166853" to="644914786#0"/>
    <trip id="veh182" type="veh_passenger" depart="143.53" departLane="best" from="-112127299" to="75589915"/>
    <trip id="veh183" type="veh_passenger" depart="144.32" departLane="best" from="541934200#1" to="646216727"/>
    <trip id="veh184" type="veh_passenger" depart="145.11" departLane="best" from="649129650" to="640209153"/>
    <trip id="veh185" type="veh_passenger" depart="145.90" departLane="best" from="438927634" to="-632257829"/>
    <trip id="veh186" type="veh_passenger" depart="146.69" departLane="best" from="639934621#1" to="259686649"/>
    <trip id="veh187" type="veh_passenger" depart="147.48" departLane="best" from="230795207#1" to="727526349#0"/>
    <trip id="veh188" type="veh_passenger" depart="148.26" departLane="best" from="646198833" to="22694118"/>
    <trip id="veh190" type="veh_passenger" depart="149.84" departLane="best" from="477939593#1" to="22514965"/>
    <trip id="veh191" type="veh_passenger" depart="150.63" departLane="best" from="-645174049" to="479541253#1"/>
    <trip id="veh192" type="veh_passenger" depart="151.42" departLane="best" from="766864952" to="640329984"/>
    <trip id="veh193" type="veh_passenger" depart="152.21" departLane="best" from="750080224" to="634473721"/>
    <trip id="veh194" type="veh_passenger" depart="153.00" departLane="best" from="22741877" to="594262615#1"/>
    <trip id="veh195" type="veh_passenger" depart="153.79" departLane="best" from="-104143838" to="200159302"/>
    <trip id="veh196" type="veh_passenger" depart="154.57" departLane="best" from="480492093#1" to="632891344"/>
    <trip id="veh197" type="veh_passenger" depart="155.36" departLane="best" from="639434517" to="481054874#0"/>
    <trip id="veh198" type="veh_passenger" depart="156.15" departLane="best" from="480739385" to="-964449494"/>
    <trip id="veh199" type="veh_passenger" depart="156.94" departLane="best" from="481626377#1" to="75007288"/>
    <trip id="veh200" type="veh_passenger" depart="157.73" departLane="best" from="665461197" to="-680873564"/>
    <trip id="veh201" type="veh_passenger" depart="158.52" departLane="best" from="-639402385" to="537127392#1"/>
    <trip id="veh202" type="veh_passenger" depart="159.31" departLane="best" from="635529867#1" to="265150842#1"/>
    <trip id="veh204" type="veh_passenger" depart="160.88" departLane="best" from="640230074#1" to="640230074#1"/>
    <trip id="veh205" type="veh_passenger" depart="161.67" departLane="best" from="-782978850" to="-283094435"/>
    <trip id="veh207" type="veh_passenger" depart="163.25" departLane="best" from="727760754" to="-632799112#0"/>
    <trip id="veh208" type="veh_passenger" depart="164.04" departLane="best" departSpeed="max" from="479165184" to="635493542"/>
    <trip id="veh209" type="veh_passenger" depart="164.83" departLane="best" from="644126003" to="644126003"/>
    <trip id="veh210" type="veh_passenger" depart="165.61" departLane="best" from="482112726" to="161640808"/>
    <trip id="veh211" type="veh_passenger" depart="166.40" departLane="best" from="639562693#1" to="-152604198"/>
    <trip id="veh212" type="veh_passenger" depart="167.19" departLane="best" from="651173807#1" to="655153308"/>
    <trip id="veh213" type="veh_passenger" depart="167.98" departLane="best" from="-643426609" to="479772182#1"/>
    <trip id="veh214" type="veh_passenger" depart="168.77" departLane="best" from="-723227616#0" to="800903535"/>
    <trip id="veh215" type="veh_passenger" depart="169.56" departLane="best" from="537070031" to="-465013275"/>
    <trip id="veh216" type="veh_passenger" depart="170.35" departLane="best" from="168242583#1" to="168242583#1"/>
    <trip id="veh217" type="veh_passenger" depart="171.14" departLane="best" from="640093272" to="884457301#1"/>
    <trip id="veh218" type="veh_passenger" depart="171.92" departLane="best" from="633555333" to="782862908#0"/>
    <trip id="veh219" type="veh_passenger" depart="172.71" departLane="best" from="747965728" to="634220633"/>
    <trip id="veh220" type="veh_passenger" depart="173.50" departLane="best" from="646194487#1" to="533637087"/>
    <trip id="veh221" type="veh_passenger" depart="174.29" departLane="best" from="715670747" to="594262612"/>
    <trip id="veh222" type="veh_passenger" depart="175.08" departLane="best" from="749507440" to="649549615"/>
    <trip id="veh224" type="veh_passenger" depart="176.66" departLane="best" from="167801145#2" to="636917920"/>
    <trip id="veh225" type="veh_passenger" depart="177.44" departLane="best" from="654850831" to="538836484"/>
    <trip id="veh226" type="veh_passenger" depart="178.23" departLane="best" from="635370041#0" to="173954643"/>
    <trip id="veh227" type="veh_passenger" depart="179.02" departLane="best" from="-634208213" to="198404610"/>
    <trip id="veh229" type="veh_passenger" depart="180.60" departLane="best" from="545574465#0" to="-646346355"/>
    <trip id="veh230" type="veh_passenger" depart="181.39" departLane="best" from="147078218#2" to="643869337"/>
    <trip id="veh231" type="veh_passenger" depart="182.18" departLane="best" from="644855462" to="-540491917"/>
    <trip id="veh232" type="veh_passenger" depart="182.96" departLane="best" from="478175618" to="573704883"/>
    <trip id="veh233" type="veh_passenger" depart="183.75" departLane="best" from="479167579" to="-83999092"/>
    <trip id="veh234" type="veh_passenger" depart="184.54" departLane="best" from="479538860#1" to="75044389"/>
    <trip id="veh235" type="veh_passenger" depart="185.33" departLane="best" from="632960702#2" to="644039287"/>
    <trip id="veh236" type="veh_passenger" depart="186.12" departLane="best" from="735371840" to="654861217"/>
    <trip id="veh237" type="veh_passenger" depart="186.91" departLane="best" from="464804565" to="-157966055#0"/>
    <trip id="veh239" type="veh_passenger" depart="188.49" departLane="best" from="729891482" to="729891482"/>
    <trip id="veh240" type="veh_passenger" depart="189.27" departLane="best" from="479388631" to="651034752"/>
    <trip id="veh241" type="veh_passenger" depart="190.06" departLane="best" from="584325660#0" to="633842913"/>
    <trip id="veh243" type="veh_passenger" depart="191.64" departLane="best" from="480671271#1" to="-33912583#4"/>
    <trip id="veh244" type="veh_passenger" depart="192.43" departLane="best" from="311687117#1" to="641083488#0"/>
    <trip id="veh245" type="veh_passenger" depart="193.22" departLane="best" from="478122502#1" to="-671759493#0"/>
    <trip id="veh246" type="veh_passenger" depart="194.01" departLane="best" from="481060242" to="-645163796"/>
    <trip id="veh249" type="veh_passenger" depart="196.37" departLane="best" from="-33875666#1" to="637778370"/>
    <trip id="veh250" type="veh_passenger" depart="197.16" departLane="best" from="-646314575" to="-646314575"/>
    <trip id="veh251" type="veh_passenger" depart="197.95" departLane="best" from="-465239993#0" to="464307256#1"/>
    <trip id="veh252" type="veh_passenger" depart="198.74" departLane="best" from="-96670625#2" to="258766522#0"/>
    <trip id="veh253" type="veh_passenger" depart="199.53" departLane="best" from="464307258#0" to="464307258#0"/>
    <trip id="veh254" type="veh_passenger" depart="200.31" departLane="best" from="651871244" to="718294662"/>
    <trip id="veh255" type="veh_passenger" depart="201.10" departLane="best" from="172112178#1" to="-635472450"/>
    <trip id="veh256" type="veh_passenger" depart="201.89" departLane="best" from="-238964436" to="55781211#0"/>
    <trip id="veh257" type="veh_passenger" depart="202.68" departLane="best" from="996698202" to="34240319"/>
    <trip id="veh258" type="veh_passenger" depart="203.47" departLane="best" from="639131441" to="657577748"/>
    <trip id="veh259" type="veh_passenger" depart="204.26" departLane="best" from="639324519" to="652167204"/>
    <trip id="veh260" type="veh_passenger" depart="205.05" departLane="best" from="782299957" to="-76735673#1"/>
    <trip id="veh263" type="veh_passenger" depart="207.41" departLane="best" from="632149417" to="104956822"/>
    <trip id="veh264" type="veh_passenger" depart="208.20" departLane="best" from="644366628" to="654961360#1"/>
    <trip id="veh265" type="veh_passenger" depart="208.99" departLane="best" from="-680290822" to="634089427#0"/>
    <trip id="veh266" type="veh_passenger" depart="209.78" departLane="best" from="650123058" to="-643895676"/>
    <trip id="veh267" type="veh_passenger" depart="210.57" departLane="best" from="691623138" to="814873293#1"/>
    <trip id="veh268" type="veh_passenger" depart="211.36" departLane="best" from="-643739261" to="-28581354"/>
    <trip id="veh269" type="veh_passenger" depart="212.14" departLane="best" from="22973686#0" to="640329985#0"/>
    <trip id="veh270" type="veh_passenger" depart="212.93" departLane="best" from="800581105#4" to="47252183#13"/>
    <trip id="veh271" type="veh_passenger" depart="213.72" departLane="best" from="645239967" to="-633617648#1"/>
    <trip id="veh272" type="veh_passenger" depart="214.51" departLane="best" from="643763888" to="635480900#1"/>
    <trip id="veh273" type="veh_passenger" depart="215.30" departLane="best" from="-641123574#2" to="655233786#0"/>
    <trip id="veh274" type="veh_passenger" depart="216.09" departLane="best" from="727847360" to="633798401"/>
    <trip id="veh275" type="veh_passenger" depart="216.88" departLane="best" from="-644840273" to="853622976"/>