<?xml version="1.0" encoding="UTF-8"?>

<!-- generated on 2022-10-13 21:29:14.253133 by osmWebWizard.py UNKNOWN
<configuration>
    <end value="3600"/>
    <fringe-factor value="2.0"/>
    <fringe-start-attributes value="departSpeed=&quot;max&quot;"/>
    <max-distance value="1200.0"/>
    <net-file value="/usr/share/sumo/tools/2022-10-13-21-26-38/osm.net.xml"/>
    <period value="2.350942122750182"/>
    <route-file value="/usr/share/sumo/tools/2022-10-13-21-26-38/osm.motorcycle.rou.xml"/>
    <trip-attributes value="departLane=&quot;best&quot;"/>
    <output-trip-file value="/usr/share/sumo/tools/2022-10-13-21-26-38/osm.motorcycle.trips.xml"/>
    <prefix value="moto"/>
    <validate value="True"/>
    <vclass value="motorcycle"/>
    <vehicle-class value="motorcycle"/>
</configuration>
-->

<!-- generated on 2022-10-13 21:29:13 by Eclipse SUMO duarouter Version 1.14.1
<configuration xmlns:xsi="http://www.w3.org/2001/XMLSchema-instance" xsi:noNamespaceSchemaLocation="http://sumo.dlr.de/xsd/duarouterConfiguration.xsd">

    <input>
        <net-file value="/usr/share/sumo/tools/2022-10-13-21-26-38/osm.net.xml"/>
        <route-files value="/usr/share/sumo/tools/2022-10-13-21-26-38/osm.motorcycle.trips.xml"/>
    </input>

    <output>
        <output-file value="/usr/share/sumo/tools/2022-10-13-21-26-38/osm.motorcycle.trips.xml.tmp"/>
        <alternatives-output value="NUL"/>
        <write-trips value="true"/>
    </output>

    <time>
        <begin value="0"/>
        <end value="3600"/>
    </time>

    <report>
        <no-warnings value="true"/>
        <ignore-errors value="true"/>
        <no-step-log value="true"/>
    </report>

</configuration>
-->

<routes xmlns:xsi="http://www.w3.org/2001/XMLSchema-instance" xsi:noNamespaceSchemaLocation="http://sumo.dlr.de/xsd/routes_file.xsd">
    <vType id="moto_motorcycle" vClass="motorcycle"/>
    <trip id="moto1" type="moto_motorcycle" depart="2.35" departLane="best" from="-481781640#0" to="-71284635"/>
    <trip id="moto2" type="moto_motorcycle" depart="4.70" departLane="best" from="-644741145#2" to="22973687#1"/>
    <trip id="moto3" type="moto_motorcycle" depart="7.05" departLane="best" from="827234497" to="724564760"/>
    <trip id="moto4" type="moto_motorcycle" depart="9.40" departLane="best" from="640093274" to="491082907#1"/>
    <trip id="moto5" type="moto_motorcycle" depart="11.75" departLane="best" from="75044389" to="728057204#1"/>
    <trip id="moto6" type="moto_motorcycle" depart="14.11" departLane="best" from="-103926121" to="161888204"/>
    <trip id="moto7" type="moto_motorcycle" depart="16.46" departLane="best" from="-202541072" to="756814576#1"/>
    <trip id="moto8" type="moto_motorcycle" depart="18.81" departLane="best" from="41894668#1" to="481048480#0"/>
    <trip id="moto9" type="moto_motorcycle" depart="21.16" departLane="best" from="-639855125" to="-676974263#1"/>
    <trip id="moto10" type="moto_motorcycle" depart="23.51" departLane="best" from="-767732099" to="651953768"/>
    <trip id="moto12" type="moto_motorcycle" depart="28.21" departLane="best" from="512870344#3" to="646194602"/>
    <trip id="moto13" type="moto_motorcycle" depart="30.56" departLane="best" from="739808397#1" to="737957633"/>
    <trip id="moto14" type="moto_motorcycle" depart="32.91" departLane="best" from="-634338105" to="537033777"/>
    <trip id="moto15" type="moto_motorcycle" depart="35.26" departLane="best" from="349530745#0" to="-160185255#0"/>
    <trip id="moto16" type="moto_motorcycle" depart="37.62" departLane="best" from="680818088#0" to="584325673"/>
    <trip id="moto17" type="moto_motorcycle" depart="39.97" departLane="best" from="28581187#0" to="28581187#0"/>
    <trip id="moto18" type="moto_motorcycle" depart="42.32" departLane="best" from="639773348#1" to="-676974263#0"/>
    <trip id="moto19" type="moto_motorcycle" depart="44.67" departLane="best" from="265150882#1" to="-644840277#0"/>
    <trip id="moto20" type="moto_motorcycle" depart="47.02" departLane="best" from="713307718" to="666957422"/>
    <trip id="moto21" type="moto_motorcycle" depart="49.37" departLane="best" from="634338105" to="671196146#0"/>
    <trip id="moto22" type="moto_motorcycle" depart="51.72" departLane="best" from="49126442" to="478295456#2"/>
    <trip id="moto23" type="moto_motorcycle" depart="54.07" departLane="best" from="673540359" to="-539382315"/>
    <trip id="moto24" type="moto_motorcycle" depart="56.42" departLane="best" from="640272397#1" to="124962623#0"/>
    <trip id="moto25" type="moto_motorcycle" depart="58.77" departLane="best" from="641104100" to="-640023545"/>
    <trip id="moto26" type="moto_motorcycle" depart="61.12" departLane="best" from="96666987" to="-639568596#0"/>
    <trip id="moto27" type="moto_motorcycle" depart="63.48" departLane="best" from="652427366" to="633812175#0"/>
    <trip id="moto28" type="moto_motorcycle" depart="65.83" departLane="best" from="512870359#0" to="325897389"/>
    <trip id="moto29" type="moto_motorcycle" depart="68.18" departLane="best" from="676547730" to="480517946#1"/>
    <trip id="moto30" type="moto_motorcycle" depart="70.53" departLane="best" from="536908874#0" to="23126209#0"/>
    <trip id="moto31" type="moto_motorcycle" depart="72.88" departLane="best" from="33876409#1" to="763600713#1"/>
    <trip id="moto32" type="moto_motorcycle" depart="75.23" departLane="best" from="481854727" to="750471115"/>
    <trip id="moto33" type="moto_motorcycle" depart="77.58" departLane="best" from="651890714#1" to="727478652"/>
    <trip id="moto34" type="moto_motorcycle" depart="79.93" departLane="best" from="665733717" to="633209701#0"/>
    <trip id="moto35" type="moto_motorcycle" depart="82.28" departLane="best" from="756814575" to="671462409"/>
    <trip id="moto37" type="moto_motorcycle" depart="86.98" departLane="best" from="639549713#0" to="-34206774#1"/>
    <trip id="moto38" type="moto_motorcycle" depart="89.34" departLane="best" from="633556671" to="674871098"/>
    <trip id="moto39" type="moto_motorcycle" depart="91.69" departLane="best" from="480727062#1" to="-645174046#1"/>
    <trip id="moto40" type="moto_motorcycle" depart="94.04" departLane="best" from="173767649" to="632195113#1"/>
    <trip id="moto41" type="moto_motorcycle" depart="96.39" departLane="best" from="646941862" to="644890486#0"/>
    <trip id="moto42" type="moto_motorcycle" depart="98.74" departLane="best" from="528567680#1" to="665224558"/>
    <trip id="moto43" type="moto_motorcycle" depart="101.09" departLane="best" from="464811045#4" to="1054617353#1"/>
    <trip id="moto44" type="moto_motorcycle" depart="103.44" departLane="best" from="-643221825" to="632753442"/>
    <trip id="moto45" type="moto_motorcycle" depart="105.79" departLane="best" from="23135742#1" to="633296721"/>
    <trip id="moto46" type="moto_motorcycle" depart="108.14" departLane="best" from="-647086408" to="814529473"/>
    <trip id="moto47" type="moto_motorcycle" depart="110.49" departLane="best" from="541112283" to="482259331#0"/>
    <trip id="moto48" type="moto_motorcycle" depart="112.85" departLane="best" from="-634473721" to="868504911"/>
    <trip id="moto49" type="moto_motorcycle" depart="115.20" departLane="best" from="-646457996" to="644914285#1"/>
    <trip id="moto50" type="moto_motorcycle" depart="117.55" departLane="best" from="-640276008" to="-643869337"/>
    <trip id="moto51" type="moto_motorcycle" depart="119.90" departLane="best" from="639346580" to="-670629173"/>
    <trip id="moto52" type="moto_motorcycle" depart="122.25" departLane="best" from="-597239226" to="480914769#1"/>
    <trip id="moto53" type="moto_motorcycle" depart="124.60" departLane="best" from="-447713240" to="464960741#2"/>
    <trip id="moto54" type="moto_motorcycle" depart="126.95" departLane="best" from="646148683" to="559564482#1"/>
    <trip id="moto55" type="moto_motorcycle" depart="129.30" departLane="best" from="-984224792#1" to="665474172#1"/>
    <trip id="moto56" type="moto_motorcycle" depart="131.65" departLane="best" from="-464220066" to="778429140"/>
    <trip id="moto57" type="moto_motorcycle" depart="134.00" departLane="best" from="172214823#0" to="795119057"/>
    <trip id="moto58" type="moto_motorcycle" depart="136.35" departLane="best" from="-464207631" to="-261041684"/>
    <trip id="moto59" type="moto_motorcycle" depart="138.71" departLane="best" from="47257475#1" to="-34206797#0"/>
    <trip id="moto61" type="moto_motorcycle" depart="143.41" departLane="best" from="230629274#0" to="-641113122#2"/>
    <trip id="moto63" type="moto_motorcycle" depart="148.11" departLane="best" from="640093274" to="536908835"/>
    <trip id="moto65" type="moto_motorcycle" depart="152.81" departLane="best" from="638058439" to="184650724#1"/>
    <trip id="moto66" type="moto_motorcycle" depart="155.16" departLane="best" from="-161416393#0" to="-75066849#1"/>
    <trip id="moto67" type="moto_motorcycle" depart="157.51" departLane="best" from="41895459" to="641082730"/>
    <trip id="moto68" type="moto_motorcycle" depart="159.86" departLane="best" from="-645261368" to="-644415952"/>
    <trip id="moto69" type="moto_motorcycle" depart="162.22" departLane="best" from="-644902183" to="464804589"/>
    <trip id="moto70" type="moto_motorcycle" depart="164.57" departLane="best" from="765287077#1" to="22741884"/>
    <trip id="moto71" type="moto_motorcycle" depart="166.92" departLane="best" from="640235302" to="-640236001"/>
    <trip id="moto72" type="moto_motorcycle" depart="169.27" departLane="best" from="637044384" to="-746639139"/>
    <trip id="moto73" type="moto_motorcycle" depart="171.62" departLane="best" from="643212312" to="-1049236411#0"/>
    <trip id="moto74" type="moto_motorcycle" depart="173.97" departLane="best" from="-33875665#0" to="-464207712"/>
    <trip id="moto76" type="moto_motorcycle" depart="178.67" departLane="best" from="536908976#0" to="-152567151#0"/>
    <trip id="moto77" type="moto_motorcycle" depart="181.02" departLane="best" from="637778370" to="713250235"/>
    <trip id="moto78" type="moto_motorcycle" depart="183.37" departLane="best" from="-646645333#1" to="-868504911"/>
    <trip id="moto79" type="moto_motorcycle" depart="185.72" departLane="best" from="539382321#1" to="539382321#1"/>
    <trip id="moto80" type="moto_motorcycle" depart="188.08" departLane="best" from="141428143#1" to="479387459"/>
    <trip id="moto81" type="moto_motorcycle" depart="190.43" departLane="best" from="-229680511" to="597156359#0"/>
    <trip id="moto82" type="moto_motorcycle" depart="192.78" departLane="best" from="-1070480600" to="23136169#1"/>
    <trip id="moto83" type="moto_motorcycle" depart="195.13" departLane="best" from="644867001" to="825701688"/>
    <trip id="moto84" type="moto_motorcycle" depart="197.48" departLane="best" from="742170149" to="479608888"/>
    <trip id="moto86" type="moto_motorcycle" depart="202.18" departLane="best" from="540515311" to="691839260#1"/>
    <trip id="moto87" type="moto_motorcycle" depart="204.53" departLane="best" from="480682747#1" to="747269111#1"/>
    <trip id="moto88" type="moto_motorcycle" depart="206.88" departLane="best" from="655651631#1" to="639934621#1"/>
    <trip id="moto89" type="moto_motorcycle" depart="209.23" departLane="best" from="633590337" to="-639709671#0"/>
    <trip id="moto90" type="moto_motorcycle" depart="211.58" departLane="best" from="876159271" to="829496463#1"/>
    <trip id="moto91" type="moto_motorcycle" depart="213.94" departLane="best" from="659435749#2" to="-640013098"/>
    <trip id="moto92" type="moto_motorcycle" depart="216.29" departLane="best" from="766128353#2" to="75392766#1"/>
    <trip id="moto93" type="moto_motorcycle" depart="218.64" departLane="best" from="814873293#0" to="721703576"/>
    <trip id="moto94" type="moto_motorcycle" depart="220.99" departLane="best" from="692668875" to="737306980"/>
    <trip id="moto95" type="moto_motorcycle" depart="223.34" departLane="best" from="-383445413" to="718802402#1"/>
    <trip id="moto96" type="moto_motorcycle" depart="225.69" departLane="best" from="1024120444" to="644500306"/>
    <trip id="moto97" type="moto_motorcycle" depart="228.04" departLane="best" from="96670625#0" to="639060515#0"/>
    <trip id="moto98" type="moto_motorcycle" depart="230.39" departLane="best" from="640254205#1" to="33912664#0"/>
    <trip id="moto99" type="moto_motorcycle" depart="232.74" departLane="best" from="655621810" to="635649512"/>
    <trip id="moto100" type="moto_motorcycle" depart="235.09" departLane="best" from="22516217#1" to="-377860681#1"/>
    <trip id="moto101" type="moto_motorcycle" depart="237.45" departLane="best" from="847163977#0" to="75066827"/>
    <trip id="moto102" type="moto_motorcycle" depart="239.80" departLane="best" from="-96667082#2" to="-746654339"/>
    <trip id="moto103" type="moto_motorcycle" depart="242.15" departLane="best" from="75066827" to="75066827"/>
    <trip id="moto104" type="moto_motorcycle" depart="244.50" departLane="best" from="50338614#1" to="-933266670#1"/>
    <trip id="moto106" type="moto_motorcycle" depart="249.20" departLane="best" from="49126440" to="-147081806#1"/>
    <trip id="moto107" type="moto_motorcycle" depart="251.55" departLane="best" from="837001887" to="647098804#1"/>
    <trip id="moto108" type="moto_motorcycle" depart="253.90" departLane="best" from="464822189#1" to="170796310"/>
    <trip id="moto110" type="moto_motorcycle" depart="258.60" departLane="best" from="654999305#0" to="644715220#1"/>
    <trip id="moto111" type="moto_motorcycle" depart="260.95" departLane="best" from="-674872401" to="645146777"/>
    <trip id="moto112" type="moto_motorcycle" depart="263.31" departLane="best" departSpeed="max" from="744564489" to="-479123338#1"/>
    <trip id="moto113" type="moto_motorcycle" depart="265.66" departLane="best" from="-644869358#0" to="480934380#2"/>
    <trip id="moto114" type="moto_motorcycle" depart="268.01" departLane="best" from="778429139" to="638132803#1"/>
    <trip id="moto115" type="moto_motorcycle" depart="270.36" departLane="best" from="-34206801" to="852601886"/>
    <trip id="moto116" type="moto_motorcycle" depart="272.71" departLane="best" from="162589257" to="642360751#1"/>
    <trip id="moto117" type="moto_motorcycle" depart="275.06" departLane="best" from="-632471397" to="47252183#8"/>
    <trip id="moto118" type="moto_motorcycle" depart="277.41" departLane="best" from="34240350#1" to="22567302"/>
    <trip id="moto119" type="moto_motorcycle" depart="279.76" departLane="best" from="-481877310#1" to="-303127156"/>
    <trip id="moto120" type="moto_motorcycle" depart="282.11" departLane="best" from="-644340072" to="97408974"/>
    <trip id="moto121" type="moto_motorcycle" depart="284.46" departLane="best" from="597211232#0" to="597211232#0"/>
    <trip id="moto122" type="moto_motorcycle" depart="286.81" departLane="best" from="-647087577" to="644890489#0"/>
    <trip id="moto123" type="moto_motorcycle" depart="289.17" departLane="best" from="-643833540#0" to="658170980"/>
    <trip id="moto124" type="moto_motorcycle" depart="291.52" departLane="best" from="45070972" to="724885265"/>
    <trip id="moto125" type="moto_motorcycle" depart="293.87" departLane="best" from="22516215#0" to="597211233#0"/>
    <trip id="moto126" type="moto_motorcycle" depart="296.22" departLane="best" from="644687698" to="639089356"/>
    <trip id="moto127" type="moto_motorcycle" depart="298.57" departLane="best" from="-711719173#1" to="-147078218#1"/>
    <trip id="moto128" type="moto_motorcycle" depart="300.92" departLane="best" from="538836491#0" to="25584252#1"/>
    <trip id="moto129" type="moto_motorcycle" depart="303.27" departLane="best" from="-647081717" to="744814552#0"/>
    <trip id="moto130" type="moto_motorcycle" depart="305.62" departLane="best" from="47252183#9" to="632165138#0"/>
    <trip id="moto132" type="moto_motorcycle" depart="310.32" departLane="best" from="1076297352" to="641087681"/>
    <trip id="moto133" type="moto_motorcycle" depart="312.68" departLane="best" from="540487543#0" to="681297791#0"/>
    <trip id="moto134" type="moto_motorcycle" depart="315.03" departLane="best" from="641158750#0" to="-750505125"/>
    <trip id="moto135" type="moto_motorcycle" depart="317.38" departLane="best" from="639392433#1" to="740593158"/>
    <trip id="moto136" type="moto_motorcycle" depart="319.73" departLane="best" from="644463789#1" to="868504911"/>
    <trip id="moto137" type="moto_motorcycle" depart="322.08" departLane="best" from="537127430" to="75414323"/>
    <trip id="moto138" type="moto_motorcycle" depart="324.43" departLane="best" from="639713849" to="639713849"/>
    <trip id="moto139" type="moto_motorcycle" depart="326.78" departLane="best" from="633422288" to="933739549#0"/>
    <trip id="moto140" type="moto_motorcycle" depart="329.13" departLane="best" from="-641173367" to="641123591"/>
    <trip id="moto141" type="moto_motorcycle" depart="331.48" departLane="best" from="639345459" to="-34066236"/>
    <trip id="moto142" type="moto_motorcycle" depart="333.83" departLane="best" from="652551027" to="633556016"/>
    <trip id="moto143" type="moto_motorcycle" depart="336.18" departLane="best" from="-372072199" to="637053114"/>
    <trip id="moto144" type="moto_motorcycle" depart="338.54" departLane="best" from="638470185#1" to="725437726"/>
    <trip id="moto146" type="moto_motorcycle" depart="343.24" departLane="best" from="645239967" to="631933988#1"/>
    <trip id="moto147" type="moto_motorcycle" depart="345.59" departLane="best" from="481055615#0" to="258428467"/>
    <trip id="moto148" type="moto_motorcycle" depart="347.94" departLane="best" from="-640251892" to="-649774434"/>
    <trip id="moto150" type="moto_motorcycle" depart="352.64" departLane="best" from="740976607#1" to="-724595097#0"/>
    <trip id="moto151" type="moto_motorcycle" depart="354.99" departLane="best" from="640269082#1" to="632136500"/>
    <trip id="moto152" type="moto_motorcycle" depart="357.34" departLane="best" from="-640209923" to="539348825#1"/>
    <trip id="moto154" type="moto_motorcycle" depart="362.05" departLane="best" from="745713362" to="491082907#1"/>
    <trip id="moto155" type="moto_motorcycle" depart="364.40" departLane="best" from="-724843103" to="464288925#1"/>
    <trip id="moto156" type="moto_motorcycle" depart="366.75" departLane="best" from="121880524" to="-636725823"/>
    <trip id="moto157" type="moto_motorcycle" depart="369.10" departLane="best" from="753806030" to="644864120"/>
    <trip id="moto158" type="moto_motorcycle" depart="371.45" departLane="best" from="633197836#1" to="173713426"/>
    <trip id="moto159" type="moto_motorcycle" depart="373.80" departLane="best" from="-721703571" to="641401351"/>
    <trip id="moto161" type="moto_motorcycle" depart="378.50" departLane="best" from="23136168#0" to="75392714#1"/>
    <trip id="moto162" type="moto_motorcycle" depart="380.85" departLane="best" from="808646753" to="655230738#1"/>
    <trip id="moto163" type="moto_motorcycle" depart="383.20" departLane="best" from="631270357#2" to="-643837684#3"/>
    <trip id="moto165" type="moto_motorcycle" depart="387.91" departLane="best" from="-634079221#0" to="45070972"/>
    <trip id="moto166" type="moto_motorcycle" depart="390.26" departLane="best" from="21944709#0" to="640084099"/>
    <trip id="moto167" type="moto_motorcycle" depart="392.61" departLane="best" from="644890488#0" to="-641129071#1"/>
    <trip id="moto168" type="moto_motorcycle" depart="394.96" departLane="best" from="-673531886#0" to="465719097#1"/>
    <trip id="moto169" type="moto_motorcycle" depart="397.31" departLane="best" from="283100001" to="652556775#0"/>
    <trip id="moto170" type="moto_motorcycle" depart="399.66" departLane="best" from="802915852#0" to="-665236517"/>
    <trip id="moto171" type="moto_motorcycle" depart="402.01" departLane="best" from="746981306" to="-96679202#1"/>
    <trip id="moto172" type="moto_motorcycle" depart="404.36" departLane="best" from="641100407" to="692898884#1"/>
    <trip id="moto173" type="moto_motorcycle" depart="406.71" departLane="best" from="-640254373" to="652551027"/>
    <trip id="moto174" type="moto_motorcycle" depart="409.06" departLane="best" from="646874392" to="-34240316"/>
    <trip id="moto175" type="moto_motorcycle" depart="411.41" departLane="best" from="643780368" to="-933786253"/>
    <trip id="moto176" type="moto_motorcycle" depart="413.77" departLane="best" from="640280313" to="639406259"/>
    <trip id="moto177" type="moto_motorcycle" depart="416.12" departLane="best" from="-853622976" to="-22973596"/>
    <trip id="moto178" type="moto_motorcycle" depart="418.47" departLane="best" from="639709671#0" to="-540471748#1"/>
    <trip id="moto179" type="moto_motorcycle" depart="420.82" departLane="best" from="176296640" to="842950020"/>
    <trip id="moto180" type="moto_motorcycle" depart="423.17" departLane="best" from="-644741145#0" to="-812446200"/>
    <trip id="moto181" type="moto_motorcycle" depart="425.52" departLane="best" from="-646695865#0" to="746968829"/>
    <trip id="moto182" type="moto_motorcycle" depart="427.87" departLane="best" from="-638470185#2" to="464822190#1"/>
    <trip id="moto183" type="moto_motorcycle" depart="430.22" departLane="best" from="753799511" to="477939593#2"/>
    <trip id="moto184" type="moto_motorcycle" depart="432.57" departLane="best" from="-643214855" to="-681313092#0"/>
    <trip id="moto185" type="moto_motorcycle" depart="434.92" departLane="best" from="647096967" to="646457995"/>
    <trip id="moto186" type="moto_motorcycle" depart="437.28" departLane="best" from="-668612771#0" to="480701034#1"/>
    <trip id="moto187" type="moto_motorcycle" depart="439.63" departLane="best" from="627656467" to="41895466#1"/>
    <trip id="moto188" type="moto_motorcycle" depart="441.98" departLane="best" from="-821307851" to="652552360"/>
    <trip id="moto189" type="moto_motorcycle" depart="444.33" departLane="best" from="480490547#0" to="634084928#0"/>
    <trip id="moto190" type="moto_motorcycle" depart="446.68" departLane="best" from="-643869337" to="633613394#2"/>
    <trip id="moto191" type="moto_motorcycle" depart="449.03" departLane="best" from="-640291760" to="643866406"/>
    <trip id="moto192" type="moto_motorcycle" depart="451.38" departLane="best" from="635634349" to="631887007#0"/>
    <trip id="moto193" type="moto_motorcycle" depart="453.73" departLane="best" from="121879139#3" to="656782400"/>
    <trip id="moto194" type="moto_motorcycle" depart="458.43" departLane="best" from="-646742897#1" to="724843094#0"/>
    <trip id="moto195" type="moto_motorcycle" depart="460.78" departLane="best" from="172112181#1" to="-718862553#0"/>
    <trip id="moto196" type="moto_motorcycle" depart="463.14" departLane="best" from="632199741" to="646198776"/>
    <trip id="moto197" type="moto_motorcycle" depart="465.49" departLane="best" from="728698455" to="680254565"/>
    <trip id="moto198" type="moto_motorcycle" depart="467.84" departLane="best" from="200159298" to="643734242"/>
    <trip id="moto199" type="moto_motorcycle" depart="470.19" departLane="best" from="661367199#1" to="633219856#1"/>
    <trip id="moto200" type="moto_motorcycle" depart="472.54" departLane="best" from="633800247#1" to="-766439449"/>
    <trip id="moto201" type="moto_motorcycle" depart="474.89" departLane="best" from="539779473" to="677101770#1"/>
    <trip id="moto202" type="moto_motorcycle" depart="477.24" departLane="best" from="633555331" to="-639718921"/>
    <trip id="moto203" type="moto_motorcycle" depart="479.59" departLane="best" from="639585726#0" to="643407045#0"/>
    <trip id="moto204" type="moto_motorcycle" depart="481.94" departLane="best" from="-741980092" to="660362915"/>
    <trip id="moto205" type="moto_motorcycle" depart="484.29" departLane="best" from="464822184#1" to="718295557"/>
    <trip id="moto206" type="moto_motorcycle" depart="486.65" departLane="best" from="646647438#0" to="638470185#1"/>
    <trip id="moto207" type="moto_motorcycle" depart="489.00" departLane="best" from="258736324#0" to="-763600713#1"/>
    <trip id="moto208" type="moto_motorcycle" depart="491.35" departLane="best" from="725021622" to="-639562694#1"/>
    <trip id="moto209" type="moto_motorcycle" depart="493.70" departLane="best" from="746622875" to="746622875"/>
    <trip id="moto210" type="moto_motorcycle" depart="496.05" departLane="best" from="479205322" to="-639872026"/>
    <trip id="moto211" type="moto_motorcycle" depart="498.40" departLane="best" from="474334027" to="747311309#0"/>
    <trip id="moto212" type="moto_motorcycle" depart="500.75" departLane="best" from="639936516" to="538769206#0"/>
    <trip id="moto213" type="moto_motorcycle" depart="503.10" departLane="best" from="-718295557" to="632230308"/>
    <trip id="moto214" type="moto_motorcycle" depart="505.45" departLane="best" from="34240305" to="644415952"/>
    <trip id="moto215" type="moto_motorcycle" depart="507.80" departLane="best" from="655197388" to="-464207713#0"/>
    <trip id="moto216" type="moto_motorcycle" depart="510.15" departLane="best" from="-726837227" to="644886870"/>
    <trip id="moto217" type="moto_motorcycle" depart="512.51" departLane="best" from="-646943986" to="-645248254"/>
    <trip id="moto218" type="moto_motorcycle" depart="514.86" departLane="best" from="173767693#1" to="173767693#1"/>
    <trip id="moto219" type="moto_motorcycle" depart="517.21" departLane="best" from="-229161762" to="639933822"/>
    <trip id="moto220" type="moto_motorcycle" depart="519.56" departLane="best" from="22973692#5" to="652318711"/>
    <trip id="moto221" type="moto_motorcycle" depart="521.91" departLane="best" from="978823152#1" to="740136184#0"/>
    <trip id="moto222" type="moto_motorcycle" depart="524.26" departLane="best" from="449399358#0" to="175878990#0"/>
    <trip id="moto223" type="moto_motorcycle" depart="526.61" departLane="best" departSpeed="max" from="680270611#0" to="173767651"/>
    <trip id="moto224" type="moto_motorcycle" depart="528.96" departLane="best" from="265150824#1" to="649553850"/>
    <trip id="moto225" type="moto_motorcycle" depart="531.31" departLane="best" from="-634140983" to="537033769"/>
    <trip id="moto226" type="moto_motorcycle" depart="533.66" departLane="best" from="25584252#0" to="771221796"/>
    <trip id="moto227" type="moto_motorcycle" depart="536.01" departLane="best" from="158188867" to="241113060#1"/>
    <trip id="moto228" type="moto_motorcycle" depart="538.37" departLane="best" from="22791049#0" to="-464960744"/>
    <trip id="moto229" type="moto_motorcycle" depart="540.72" departLane="best" from="842732512" to="635634346#0"/>
    <trip id="moto230" type="moto_motorcycle" depart="543.07" departLane="best" from="-728118846" to="493592537"/>
    <trip id="moto231" type="moto_motorcycle" depart="545.42" departLane="best" from="74887366" to="639386747"/>
    <trip id="moto232" type="moto_motorcycle" depart="547.77" departLane="best" from="-723227616#0" to="-480761558#1"/>
    <trip id="moto233" type="moto_motorcycle" depart="550.12" departLane="best" from="646695865#1" to="665776852"/>
    <trip id="moto234" type="moto_motorcycle" depart="552.47" departLane="best" from="766176986" to="826805718"/>
    <trip id="moto235" type="moto_motorcycle" depart="554.82" departLane="best" from="477929960#0" to="639764856"/>
    <trip id="moto236" type="moto_motorcycle" depart="557.17" departLane="best" from="-147077672#0" to="632468363"/>
    <trip id="moto237" type="moto_motorcycle" depart="559.52" departLane="best" from="22905645#1" to="745362036"/>
    <trip id="moto238" type="moto_motorcycle" depart="561.88" departLane="best" from="22973689#0" to="-437526418#1"/>
    <trip id="moto239" type="moto_motorcycle" depart="564.23" departLane="best" from="-633446903" to="464804574#0"/>
    <trip id="moto240" type="moto_motorcycle" depart="566.58" departLane="best" from="786150989#1" to="546460381#1"/>
    <trip id="moto241" type="moto_motorcycle" depart="568.93" departLane="best" from="671442362" to="479770579"/>
    <trip id="moto242" type="moto_motorcycle" depart="571.28" departLane="best" from="479166008" to="244362477#1"/>
    <trip id="moto243" type="moto_motorcycle" depart="573.63" departLane="best" from="876159271" to="638124970"/>
    <trip id="moto244" type="moto_motorcycle" depart="575.98" departLane="best" from="640272397#1" to="654999504"/>
    <trip id="moto245" type="moto_motorcycle" depart="578.33" departLane="best" from="-512870194" to="479305356#1"/>
    <trip id="moto246" type="moto_motorcycle" depart="580.68" departLane="best" from="-640196567#1" to="633618037#1"/>
    <trip id="moto247" type="moto_motorcycle" depart="583.03" departLane="best" from="533643598" to="-464811045#6"/>
    <trip id="moto248" type="moto_motorcycle" depart="585.38" departLane="best" from="-160185341" to="22964461"/>
    <trip id="moto249" type="moto_motorcycle" depart="587.74" departLane="best" from="-646140604" to="644688272"/>
    <trip id="moto250" type="moto_motorcycle" depart="590.09" departLane="best" from="771221803" to="241574419"/>
    <trip id="moto251" type="moto_motorcycle" depart="592.44" departLane="best" from="836286715" to="643426609"/>
    <trip id="moto252" type="moto_motorcycle" depart="594.79" departLane="best" from="769560989" to="-644840277#1"/>
    <trip id="moto253" type="moto_motorcycle" depart="597.14" departLane="best" from="480937815" to="984224793"/>
    <trip id="moto254" type="moto_motorcycle" depart="599.49" departLane="best" from="643841614#2" to="641428043#1"/>
    <trip id="moto255" type="moto_motorcycle" depart="601.84" departLane="best" from="-33875672#2" to="255344777"/>
    <trip id="moto256" type="moto_motorcycle" depart="604.19" departLane="best" from="-76802198" to="34206782"/>
    <trip id="moto257" type="moto_motorcycle" depart="606.54" departLane="best" from="-229161772#0" to="-644110696"/>
    <trip id="moto258" type="moto_motorcycle" depart="608.89" departLane="best" from="173767908#3" to="839189741#1"/>