<?xml version="1.0" encoding="UTF-8"?>

<!-- generated on 2022-10-05 18:42:41.761605 by osmWebWizard.py UNKNOWN
<configuration>
    <end value="3600"/>
    <fringe-factor value="2.0"/>
    <fringe-start-attributes value="departSpeed=&quot;max&quot;"/>
    <max-distance value="1200.0"/>
    <net-file value="/usr/share/sumo/tools/2022-10-05-18-41-56/osm.net.xml"/>
    <period value="6.548280306996506"/>
    <route-file value="/usr/share/sumo/tools/2022-10-05-18-41-56/osm.motorcycle.rou.xml"/>
    <trip-attributes value="departLane=&quot;best&quot;"/>
    <output-trip-file value="/usr/share/sumo/tools/2022-10-05-18-41-56/osm.motorcycle.trips.xml"/>
    <prefix value="moto"/>
    <validate value="True"/>
    <vclass value="motorcycle"/>
    <vehicle-class value="motorcycle"/>
</configuration>
-->

<!-- generated on 2022-10-05 18:42:41 by Eclipse SUMO duarouter Version 1.14.1
<configuration xmlns:xsi="http://www.w3.org/2001/XMLSchema-instance" xsi:noNamespaceSchemaLocation="http://sumo.dlr.de/xsd/duarouterConfiguration.xsd">

    <input>
        <net-file value="/usr/share/sumo/tools/2022-10-05-18-41-56/osm.net.xml"/>
        <route-files value="/usr/share/sumo/tools/2022-10-05-18-41-56/osm.motorcycle.trips.xml"/>
    </input>

    <output>
        <output-file value="/usr/share/sumo/tools/2022-10-05-18-41-56/osm.motorcycle.trips.xml.tmp"/>
        <alternatives-output value="NUL"/>
        <write-trips value="true"/>
    </output>

    <time>
        <begin value="0"/>
        <end value="3600"/>
    </time>

    <report>
        <no-warnings value="true"/>
        <ignore-errors value="true"/>
        <no-step-log value="true"/>
    </report>

</configuration>
-->

<routes xmlns:xsi="http://www.w3.org/2001/XMLSchema-instance" xsi:noNamespaceSchemaLocation="http://sumo.dlr.de/xsd/routes_file.xsd">
    <vType id="moto_motorcycle" vClass="motorcycle"/>
    <trip id="moto0" type="moto_motorcycle" depart="0.00" departLane="best" from="656129034" to="644333162"/>
    <trip id="moto1" type="moto_motorcycle" depart="6.55" departLane="best" from="-646370160" to="325897389"/>
    <trip id="moto2" type="moto_motorcycle" depart="13.10" departLane="best" from="701603698" to="649392322#0"/>
    <trip id="moto3" type="moto_motorcycle" depart="19.64" departLane="best" from="-719135879#0" to="75061884"/>
    <trip id="moto4" type="moto_motorcycle" depart="26.19" departLane="best" from="639934961#1" to="40840643#1"/>
    <trip id="moto5" type="moto_motorcycle" depart="32.74" departLane="best" from="746690575" to="479608894"/>
    <trip id="moto7" type="moto_motorcycle" depart="45.84" departLane="best" from="-639548155#0" to="-464822280"/>
    <trip id="moto8" type="moto_motorcycle" depart="52.39" departLane="best" from="96680725#2" to="539342410#2"/>
    <trip id="moto10" type="moto_motorcycle" depart="65.48" departLane="best" from="120106636" to="721703578#1"/>
    <trip id="moto11" type="moto_motorcycle" depart="72.03" departLane="best" from="22278331#0" to="633617700#1"/>
    <trip id="moto12" type="moto_motorcycle" depart="78.58" departLane="best" from="-747864322#0" to="-741980772#0"/>
    <trip id="moto13" type="moto_motorcycle" depart="85.13" departLane="best" from="-747840461" to="744914745#1"/>
    <trip id="moto14" type="moto_motorcycle" depart="91.68" departLane="best" from="480914776" to="652298362#1"/>
    <trip id="moto15" type="moto_motorcycle" depart="98.22" departLane="best" from="55781211#1" to="-465013299"/>
    <trip id="moto16" type="moto_motorcycle" depart="104.77" departLane="best" from="325897399#0" to="862981921#0"/>
    <trip id="moto17" type="moto_motorcycle" depart="111.32" departLane="best" from="120106636" to="652291042"/>
    <trip id="moto18" type="moto_motorcycle" depart="117.87" departLane="best" from="738258067" to="-884457300#0"/>
    <trip id="moto19" type="moto_motorcycle" depart="124.42" departLane="best" from="538846523#1" to="749841328#1"/>
    <trip id="moto20" type="moto_motorcycle" depart="130.97" departLane="best" from="-700851895" to="644994779#0"/>
    <trip id="moto21" type="moto_motorcycle" depart="137.51" departLane="best" from="634730022#0" to="905360543"/>
    <trip id="moto22" type="moto_motorcycle" depart="144.06" departLane="best" from="512870223#0" to="744914745#1"/>
    <trip id="moto23" type="moto_motorcycle" depart="150.61" departLane="best" from="168242583#1" to="743279979#1"/>
    <trip id="moto24" type="moto_motorcycle" depart="157.16" departLane="best" from="453769186#1" to="635470894"/>
    <trip id="moto25" type="moto_motorcycle" depart="163.71" departLane="best" from="658252510" to="726132478#1"/>
    <trip id="moto26" type="moto_motorcycle" depart="170.26" departLane="best" from="479619179" to="167942030#0"/>
    <trip id="moto27" type="moto_motorcycle" depart="176.80" departLane="best" from="83999128#1" to="539777703#1"/>
    <trip id="moto29" type="moto_motorcycle" depart="189.90" departLane="best" from="-641061736" to="467093555"/>
    <trip id="moto30" type="moto_motorcycle" depart="196.45" departLane="best" from="364448587#1" to="632180183"/>
    <trip id="moto31" type="moto_motorcycle" depart="203.00" departLane="best" from="-644695823#0" to="465013248#0"/>
    <trip id="moto32" type="moto_motorcycle" depart="209.54" departLane="best" from="-1038616655#0" to="152592779#2"/>
    <trip id="moto34" type="moto_motorcycle" depart="222.64" departLane="best" from="464822280" to="637020647#0"/>
    <trip id="moto35" type="moto_motorcycle" depart="229.19" departLane="best" from="479568122" to="655696048"/>
    <trip id="moto36" type="moto_motorcycle" depart="235.74" departLane="best" from="738493725#1" to="634721575"/>
    <trip id="moto37" type="moto_motorcycle" depart="242.29" departLane="best" from="646844093" to="538767561#1"/>
    <trip id="moto38" type="moto_motorcycle" depart="248.83" departLane="best" from="464985738#1" to="-709637313"/>
    <trip id="moto39" type="moto_motorcycle" depart="255.38" departLane="best" from="22964462#0" to="646391290#1"/>
    <trip id="moto41" type="moto_motorcycle" depart="268.48" departLane="best" from="-644688088#0" to="640196567#1"/>
    <trip id="moto42" type="moto_motorcycle" depart="275.03" departLane="best" from="644452629" to="646840176"/>
    <trip id="moto43" type="moto_motorcycle" depart="281.58" departLane="best" from="713281275" to="634151261"/>
    <trip id="moto44" type="moto_motorcycle" depart="288.12" departLane="best" from="-644246722" to="852584633"/>
    <trip id="moto45" type="moto_motorcycle" depart="294.67" departLane="best" from="325897399#0" to="-325897359"/>
    <trip id="moto46" type="moto_motorcycle" depart="301.22" departLane="best" from="643845750" to="639402382"/>
    <trip id="moto47" type="moto_motorcycle" depart="307.77" departLane="best" from="-639741610" to="-743307368#0"/>
    <trip id="moto49" type="moto_motorcycle" depart="320.87" departLane="best" from="539777701" to="121886001#3"/>
    <trip id="moto50" type="moto_motorcycle" depart="327.41" departLane="best" departSpeed="max" from="644368064" to="-644368064"/>
    <trip id="moto51" type="moto_motorcycle" depart="333.96" departLane="best" from="723111443" to="631883057"/>
    <trip id="moto52" type="moto_motorcycle" depart="340.51" departLane="best" from="480882209" to="478175607#1"/>
    <trip id="moto53" type="moto_motorcycle" depart="347.06" departLane="best" from="-476871421#0" to="-646223538"/>
    <trip id="moto54" type="moto_motorcycle" depart="353.61" departLane="best" from="961869030" to="167942030#1"/>
    <trip id="moto55" type="moto_motorcycle" depart="360.16" departLane="best" from="-718777325" to="-718809175"/>
    <trip id="moto56" type="moto_motorcycle" depart="366.70" departLane="best" from="643763886" to="644423358#1"/>
    <trip id="moto57" type="moto_motorcycle" depart="373.25" departLane="best" from="152762798#1" to="753178294"/>
    <trip id="moto59" type="moto_motorcycle" depart="386.35" departLane="best" from="646701762#1" to="-689828770#0"/>
    <trip id="moto60" type="moto_motorcycle" depart="392.90" departLane="best" from="634505344#0" to="-792780567"/>
    <trip id="moto61" type="moto_motorcycle" depart="399.45" departLane="best" from="747351173#1" to="536908837#0"/>
    <trip id="moto62" type="moto_motorcycle" depart="405.99" departLane="best" from="464822286#1" to="749728940#2-AddedOnRampEdge"/>
    <trip id="moto63" type="moto_motorcycle" depart="412.54" departLane="best" from="630807079" to="-749841336"/>
    <trip id="moto64" type="moto_motorcycle" depart="419.09" departLane="best" from="640177087" to="664261663"/>
    <trip id="moto65" type="moto_motorcycle" depart="425.64" departLane="best" from="639915855#1" to="-646261560"/>
    <trip id="moto66" type="moto_motorcycle" depart="432.19" departLane="best" from="-646340452" to="478176271"/>
    <trip id="moto67" type="moto_motorcycle" depart="438.73" departLane="best" from="-680818088#0" to="34835025#1"/>
    <trip id="moto68" type="moto_motorcycle" depart="445.28" departLane="best" from="96668755" to="160182336#1"/>
    <trip id="moto69" type="moto_motorcycle" depart="451.83" departLane="best" from="639568320#1" to="168242591#1"/>
    <trip id="moto70" type="moto_motorcycle" depart="458.38" departLane="best" from="673037064#2" to="1024120444"/>
    <trip id="moto71" type="moto_motorcycle" depart="464.93" departLane="best" from="22278331#3" to="-641173366#1"/>
    <trip id="moto72" type="moto_motorcycle" depart="471.48" departLane="best" from="646194490#1" to="828472795#0"/>
    <trip id="moto73" type="moto_motorcycle" depart="478.02" departLane="best" from="584325666" to="746653374"/>
    <trip id="moto74" type="moto_motorcycle" depart="484.57" departLane="best" from="161972818" to="454880868#1"/>
    <trip id="moto75" type="moto_motorcycle" depart="491.12" departLane="best" from="760711476" to="-34834806"/>
    <trip id="moto76" type="moto_motorcycle" depart="497.67" departLane="best" from="640173907" to="638946984#0"/>
    <trip id="moto77" type="moto_motorcycle" depart="504.22" departLane="best" from="538769210" to="479568120#1"/>
    <trip id="moto78" type="moto_motorcycle" depart="510.77" departLane="best" from="784684253" to="-53014188#0"/>
    <trip id="moto79" type="moto_motorcycle" depart="517.31" departLane="best" from="479390106#0" to="-747351172"/>
    <trip id="moto80" type="moto_motorcycle" depart="523.86" departLane="best" from="22278541" to="479390113#1"/>
    <trip id="moto81" type="moto_motorcycle" depart="530.41" departLane="best" from="46648190" to="640177087"/>
    <trip id="moto82" type="moto_motorcycle" depart="536.96" departLane="best" from="325897301" to="-646226582"/>
    <trip id="moto83" type="moto_motorcycle" depart="543.51" departLane="best" from="633618037#1" to="581579790"/>
    <trip id="moto84" type="moto_motorcycle" depart="550.06" departLane="best" from="664261663" to="634751134"/>
    <trip id="moto86" type="moto_motorcycle" depart="563.15" departLane="best" from="650041190" to="597117837"/>
    <trip id="moto87" type="moto_motorcycle" depart="569.70" departLane="best" from="640168605" to="482127824"/>
    <trip id="moto88" type="moto_motorcycle" depart="576.25" departLane="best" from="478340484#1" to="121883644"/>
    <trip id="moto89" type="moto_motorcycle" depart="582.80" departLane="best" from="644688223" to="528461168"/>
    <trip id="moto91" type="moto_motorcycle" depart="595.89" departLane="best" from="22278645" to="175840209#2"/>
    <trip id="moto92" type="moto_motorcycle" depart="602.44" departLane="best" from="745362036" to="22945257"/>
    <trip id="moto93" type="moto_motorcycle" depart="608.99" departLane="best" from="-480758097" to="535366465"/>
    <trip id="moto94" type="moto_motorcycle" depart="615.54" departLane="best" from="654723715#0" to="639549496"/>
    <trip id="moto95" type="moto_motorcycle" depart="622.09" departLane="best" from="-541933848" to="-639568320#0"/>
    <trip id="moto96" type="moto_motorcycle" depart="628.63" departLane="best" from="792780569" to="644334637#1"/>
    <trip id="moto97" type="moto_motorcycle" depart="635.18" departLane="best" from="244362488#1" to="244362481"/>
    <trip id="moto98" type="moto_motorcycle" depart="641.73" departLane="best" from="-438741203" to="22051189#0"/>
    <trip id="moto99" type="moto_motorcycle" depart="648.28" departLane="best" from="478127210#2" to="464811045#3"/>
    <trip id="moto100" type="moto_motorcycle" depart="654.83" departLane="best" from="-96668827#0" to="638946438"/>
    <trip id="moto102" type="moto_motorcycle" depart="667.92" departLane="best" from="646789566" to="121883639#1"/>
    <trip id="moto103" type="moto_motorcycle" depart="674.47" departLane="best" from="325897324#1" to="-325897327"/>
    <trip id="moto104" type="moto_motorcycle" depart="681.02" departLane="best" from="74863995" to="690175190"/>
    <trip id="moto105" type="moto_motorcycle" depart="687.57" departLane="best" from="-645334437#1" to="152592779#2"/>
    <trip id="moto106" type="moto_motorcycle" depart="694.12" departLane="best" from="161888205#1" to="-464985741"/>
    <trip id="moto107" type="moto_motorcycle" depart="700.67" departLane="best" from="479608893" to="-640346903#0"/>
    <trip id="moto108" type="moto_motorcycle" depart="707.21" departLane="best" from="933705867#0" to="571466820"/>
    <trip id="moto109" type="moto_motorcycle" depart="713.76" departLane="best" from="383445417" to="480685024#1"/>
    <trip id="moto110" type="moto_motorcycle" depart="720.31" departLane="best" from="647107645" to="646224365"/>
    <trip id="moto111" type="moto_motorcycle" depart="726.86" departLane="best" from="-646841879#0" to="650982337#1"/>
    <trip id="moto112" type="moto_motorcycle" depart="733.41" departLane="best" from="634187140#1" to="665461171"/>
    <trip id="moto113" type="moto_motorcycle" depart="739.96" departLane="best" from="-646203554" to="634255233#1"/>
    <trip id="moto114" type="moto_motorcycle" depart="746.50" departLane="best" from="325897189#1" to="646723487#1"/>
    <trip id="moto115" type="moto_motorcycle" depart="753.05" departLane="best" from="-96667538#0" to="-641123594"/>
    <trip id="moto116" type="moto_motorcycle" depart="759.60" departLane="best" from="646226088" to="528461129#1"/>
    <trip id="moto117" type="moto_motorcycle" depart="766.15" departLane="best" from="369643714#1" to="581579795#1"/>
    <trip id="moto118" type="moto_motorcycle" depart="772.70" departLane="best" from="743315066" to="479115440#0"/>
    <trip id="moto119" type="moto_motorcycle" depart="779.25" departLane="best" from="-638071796#1" to="641132266"/>
    <trip id="moto120" type="moto_motorcycle" depart="785.79" departLane="best" from="709272171" to="173767830"/>
    <trip id="moto121" type="moto_motorcycle" depart="792.34" departLane="best" from="74809481" to="638470185#1"/>
    <trip id="moto122" type="moto_motorcycle" depart="798.89" departLane="best" from="539342394#2" to="646889315"/>
    <trip id="moto123" type="moto_motorcycle" depart="805.44" departLane="best" from="173768005#1" to="644864553"/>
    <trip id="moto124" type="moto_motorcycle" depart="811.99" departLane="best" from="162268372" to="539676361#1"/>
    <trip id="moto125" type="moto_motorcycle" depart="818.54" departLane="best" from="528461160" to="635749559#1"/>
    <trip id="moto126" type="moto_motorcycle" depart="825.08" departLane="best" from="482084744" to="655799772"/>
    <trip id="moto127" type="moto_motorcycle" depart="831.63" departLane="best" from="-633788297" to="-512870200"/>
    <trip id="moto128" type="moto_motorcycle" depart="838.18" departLane="best" from="315702588" to="581579795#1"/>
    <trip id="moto129" type="moto_motorcycle" depart="844.73" departLane="best" from="-639999881" to="157966055#1"/>
    <trip id="moto130" type="moto_motorcycle" depart="851.28" departLane="best" from="646789566" to="528461127#0"/>
    <trip id="moto131" type="moto_motorcycle" depart="857.82" departLane="best" from="22964470#0" to="-465013299"/>
    <trip id="moto132" type="moto_motorcycle" depart="864.37" departLane="best" departSpeed="max" from="527607918#0" to="726874954#2"/>
    <trip id="moto133" type="moto_motorcycle" depart="870.92" departLane="best" from="803186285#3" to="402064195#0"/>
    <trip id="moto134" type="moto_motorcycle" depart="877.47" departLane="best" from="655492366#0" to="22278331#3"/>
    <trip id="moto135" type="moto_motorcycle" depart="884.02" departLane="best" from="652298362#1" to="649405409"/>
    <trip id="moto137" type="moto_motorcycle" depart="897.11" departLane="best" from="173913043-AddedOnRampEdge" to="640062959"/>
    <trip id="moto138" type="moto_motorcycle" depart="903.66" departLane="best" from="-646808254" to="74659025#1"/>
    <trip id="moto139" type="moto_motorcycle" depart="910.21" departLane="best" from="769560986#0" to="655788435"/>
    <trip id="moto140" type="moto_motorcycle" depart="916.76" departLane="best" from="481682489#1" to="-681048409"/>
    <trip id="moto141" type="moto_motorcycle" depart="923.31" departLane="best" from="539672629" to="638655528#1"/>
    <trip id="moto142" type="moto_motorcycle" depart="929.86" departLane="best" from="645146057#0" to="-640006277#1"/>
    <trip id="moto144" type="moto_motorcycle" depart="942.95" departLane="best" from="646188884" to="75007281"/>
    <trip id="moto145" type="moto_motorcycle" depart="949.50" departLane="best" from="-640331088#0" to="848070293"/>
    <trip id="moto146" type="moto_motorcycle" depart="956.05" departLane="best" from="540511467" to="512870364#1"/>
    <trip id="moto147" type="moto_motorcycle" depart="962.60" departLane="best" from="670117325" to="537127419"/>
    <trip id="moto148" type="moto_motorcycle" depart="969.15" departLane="best" from="-665232122" to="-646140604"/>
    <trip id="moto149" type="moto_motorcycle" depart="975.69" departLane="best" from="-161151418" to="639886488#0"/>
    <trip id="moto150" type="moto_motorcycle" depart="982.24" departLane="best" from="452242289#1" to="533607856#0"/>
    <trip id="moto151" type="moto_motorcycle" depart="988.79" departLane="best" from="-644994779#1" to="-646230551"/>
    <trip id="moto152" type="moto_motorcycle" depart="995.34" departLane="best" from="723111444#1" to="-634170788"/>
    <trip id="moto153" type="moto_motorcycle" depart="1001.89" departLane="best" from="-538768941" to="541934200#0"/>
    <trip id="moto154" type="moto_motorcycle" depart="1008.44" departLane="best" from="-639548155#0" to="536908922#1"/>
    <trip id="moto155" type="moto_motorcycle" depart="1014.98" departLane="best" from="749879154" to="-34834800#0"/>
    <trip id="moto156" type="moto_motorcycle" depart="1021.53" departLane="best" from="646844093" to="821550907"/>
    <trip id="moto157" type="moto_motorcycle" depart="1028.08" departLane="best" from="719654549" to="745013850"/>
    <trip id="moto158" type="moto_motorcycle" depart="1034.63" departLane="best" from="-745314048" to="-119060317#0"/>
    <trip id="moto159" type="moto_motorcycle" depart="1041.18" departLane="best" from="-744633324" to="161888205#0"/>
    <trip id="moto160" type="moto_motorcycle" depart="1047.72" departLane="best" from="-537127380#1" to="75414319"/>
    <trip id="moto161" type="moto_motorcycle" depart="1054.27" departLane="best" from="635749559#1" to="46648083#1"/>
    <trip id="moto162" type="moto_motorcycle" depart="1060.82" departLane="best" from="325897347#0" to="646401252"/>
    <trip id="moto163" type="moto_motorcycle" depart="1067.37" departLane="best" from="646194490#1" to="573272651#1"/>
    <trip id="moto165" type="moto_motorcycle" depart="1080.47" departLane="best" from="643425332#1" to="1038616655#0"/>
    <trip id="moto166" type="moto_motorcycle" depart="1087.01" departLane="best" from="639056018" to="512870223#0"/>
    <trip id="moto167" type="moto_motorcycle" depart="1093.56" departLane="best" from="-22051189#0" to="658399632"/>
    <trip id="moto168" type="moto_motorcycle" depart="1100.11" departLane="best" from="439740108" to="325024321#1"/>
    <trip id="moto169" type="moto_motorcycle" depart="1106.66" departLane="best" from="173166887#0" to="771534654"/>
    <trip id="moto170" type="moto_motorcycle" depart="1113.21" departLane="best" from="803174067" to="-46650499#3"/>
    <trip id="moto171" type="moto_motorcycle" depart="1119.76" departLane="best" from="75061885" to="46650504"/>
    <trip id="moto172" type="moto_motorcycle" depart="1126.30" departLane="best" from="-634138333" to="-96668827#1"/>
    <trip id="moto174" type="moto_motorcycle" depart="1139.40" departLane="best" from="-643425331" to="584325682#1"/>
    <trip id="moto175" type="moto_motorcycle" depart="1145.95" departLane="best" from="641173366#1" to="546406967"/>
    <trip id="moto176" type="moto_motorcycle" depart="1152.50" departLane="best" from="644864556" to="478125624#1"/>
    <trip id="moto177" type="moto_motorcycle" depart="1159.05" departLane="best" from="654722539" to="-633270575"/>
    <trip id="moto178" type="moto_motorcycle" depart="1165.59" departLane="best" from="243309367#0" to="741897246#1"/>
    <trip id="moto179" type="moto_motorcycle" depart="1172.14" departLane="best" from="536908967" to="538766129#1"/>
    <trip id="moto180" type="moto_motorcycle" depart="1178.69" departLane="best" from="1092006407" to="718658672"/>
    <trip id="moto181" type="moto_motorcycle" depart="1185.24" departLane="best" from="634146358" to="634515830"/>
    <trip id="moto182" type="moto_motorcycle" depart="1191.79" departLane="best" from="-634341441#1" to="-34710320"/>
    <trip id="moto183" type="moto_motorcycle" depart="1198.34" departLane="best" from="-643425332#1" to="649072875#1"/>
    <trip id="moto184" type="moto_motorcycle" depart="1204.88" departLane="best" from="644914493#1" to="637729506#0"/>
    <trip id="moto185" type="moto_motorcycle" depart="1211.43" departLane="best" from="781728644" to="652334328#1"/>
    <trip id="moto186" type="moto_motorcycle" depart="1217.98" departLane="best" from="718875171" to="-644411474"/>
    <trip id="moto187" type="moto_motorcycle" depart="1224.53" departLane="best" from="646723491" to="640278283#0"/>
    <trip id="moto188" type="moto_motorcycle" depart="1231.08" departLane="best" from="538766099" to="125774788#2"/>
    <trip id="moto189" type="moto_motorcycle" depart="1237.62" departLane="best" from="756414974" to="173914632#0"/>
    <trip id="moto190" type="moto_motorcycle" depart="1244.17" departLane="best" from="46650499#1" to="-718862555#0"/>
    <trip id="moto191" type="moto_motorcycle" depart="1250.72" departLane="best" from="597117836" to="482126064#0"/>
    <trip id="moto192" type="moto_motorcycle" depart="1257.27" departLane="best" from="22694122" to="641149565"/>
    <trip id="moto194" type="moto_motorcycle" depart="1270.37" departLane="best" from="771221796" to="-681288870"/>
    <trip id="moto195" type="moto_motorcycle" depart="1276.91" departLane="best" from="325024322" to="744906189"/>
    <trip id="moto196" type="moto_motorcycle" depart="1283.46" departLane="best" from="167943191#1" to="644421995"/>
    <trip id="moto197" type="moto_motorcycle" depart="1290.01" departLane="best" from="-747037548" to="641123574#0"/>
    <trip id="moto198" type="moto_motorcycle" depart="1296.56" departLane="best" from="173166863#0" to="726118327#1"/>
    <trip id="moto199" type="moto_motorcycle" depart="1303.11" departLane="best" from="646400892" to="633789158"/>
    <trip id="moto200" type="moto_motorcycle" depart="1309.66" departLane="best" from="173166887#0" to="-645294871#3"/>
    <trip id="moto201" type="moto_motorcycle" depart="1316.20" departLane="best" from="634338099#0" to="650982337#0"/>
    <trip id="moto202" type="moto_motorcycle" depart="1322.75" departLane="best" from="-479612878" to="741980771#1"/>
    <trip id="moto203" type="moto_motorcycle" depart="1329.30" departLane="best" from="634039523" to="539342408#0"/>
    <trip id="moto204" type="moto_motorcycle" depart="1335.85" departLane="best" from="-452242290" to="-512870351"/>
    <trip id="moto205" type="moto_motorcycle" depart="1342.40" departLane="best" from="646273422" to="-643763889"/>
    <trip id="moto206" type="moto_motorcycle" depart="1348.95" departLane="best" from="-646375831" to="763012405"/>
    <trip id="moto207" type="moto_motorcycle" depart="1355.49" departLane="best" from="645243280" to="-646376481"/>
    <trip id="moto209" type="moto_motorcycle" depart="1368.59" departLane="best" from="480427090" to="142084664#0"/>
    <trip id="moto210" type="moto_motorcycle" depart="1375.14" departLane="best" from="526612522" to="647097236"/>
    <trip id="moto211" type="moto_motorcycle" depart="1381.69" departLane="best" from="639996289#1" to="709688611#0"/>
    <trip id="moto212" type="moto_motorcycle" depart="1388.24" departLane="best" from="743255421#1" to="538767545"/>
    <trip id="moto213" type="moto_motorcycle" depart="1394.78" departLane="best" from="121883643#1" to="-633791530"/>
    <trip id="moto214" type="moto_motorcycle" depart="1401.33" departLane="best" from="786143563" to="-709688611#1"/>
    <trip id="moto215" type="moto_motorcycle" depart="1407.88" departLane="best" from="-644126003" to="-646285714"/>
    <trip id="moto216" type="moto_motorcycle" depart="1414.43" departLane="best" from="641077576#0" to="1054617353#1"/>
    <trip id="moto217" type="moto_motorcycle" depart="1420.98" departLane="best" from="449387967" to="479378354"/>
    <trip id="moto218" type="moto_motorcycle" depart="1427.53" departLane="best" from="673037064#2" to="847163977#1"/>
    <trip id="moto219" type="moto_motorcycle" depart="1434.07" departLane="best" from="-34710320" to="641173366#1"/>
    <trip id="moto221" type="moto_motorcycle" depart="1447.17" departLane="best" from="571466421" to="-53014188#1"/>
    <trip id="moto222" type="moto_motorcycle" depart="1453.72" departLane="best" from="655788432" to="655147224#1"/>
    <trip id="moto223" type="moto_motorcycle" depart="1460.27" departLane="best" from="663990776#1" to="746829864#1"/>
    <trip id="moto224" type="moto_motorcycle" depart="1466.81" departLane="best" from="656638028" to="644331898"/>
    <trip id="moto225" type="moto_motorcycle" depart="1473.36" departLane="best" from="-666686801" to="923597380#2"/>
    <trip id="moto226" type="moto_motorcycle" depart="1479.91" departLane="best" from="168243073#0" to="512870222#0"/>
    <trip id="moto227" type="moto_motorcycle" depart="1486.46" departLane="best" from="75414324#0" to="75414320"/>
    <trip id="moto228" type="moto_motorcycle" depart="1493.01" departLane="best" from="634187140#1" to="747060512#1"/>
    <trip id="moto229" type="moto_motorcycle" depart="1499.56" departLane="best" from="792780569" to="-743255421#1"/>
    <trip id="moto230" type="moto_motorcycle" depart="1506.10" departLane="best" from="596709790#1" to="75007281"/>
    <trip id="moto231" type="moto_motorcycle" depart="1512.65" departLane="best" from="325897397#2" to="540527322"/>
    <trip id="moto232" type="moto_motorcycle" depart="1519.20" departLane="best" from="634084928#0" to="634751134"/>
    <trip id="moto233" type="moto_motorcycle" depart="1525.75" departLane="best" from="-792780566" to="-465013248#0"/>
    <trip id="moto234" type="moto_motorcycle" depart="1532.30" departLane="best" from="-646647438#1" to="159674805#0"/>
    <trip id="moto235" type="moto_motorcycle" depart="1538.85" departLane="best" from="-639549496" to="540487037"/>
    <trip id="moto236" type="moto_motorcycle" depart="1545.39" departLane="best" from="481669049" to="-634140985"/>
    <trip id="moto237" type="moto_motorcycle" depart="1551.94" departLane="best" from="104145280#0" to="745710927"/>
    <trip id="moto238" type="moto_motorcycle" depart="1558.49" departLane="best" from="479612876#0" to="723111439"/>
    <trip id="moto239" type="moto_motorcycle" depart="1565.04" departLane="best" from="633791531" to="646621120"/>
    <trip id="moto240" type="moto_motorcycle" depart="1571.59" departLane="best" from="75044393#0" to="747369068"/>
    <trip id="moto241" type="moto_motorcycle" depart="1578.14" departLane="best" from="22694123" to="464811045#3"/>
    <trip id="moto242" type="moto_motorcycle" depart="1584.68" departLane="best" from="634505344#1" to="-402064195#0"/>
    <trip id="moto243" type="moto_motorcycle" depart="1591.23" departLane="best" from="175545980#0" to="-784097100#0"/>
    <trip id="moto244" type="moto_motorcycle" depart="1597.78" departLane="best" from="669879924" to="121753596"/>
    <trip id="moto245" type="moto_motorcycle" depart="1604.33" departLane="best" from="-665497417" to="-718862553#0"/>
    <trip id="moto246" type="moto_motorcycle" depart="1610.88" departLane="best" from="746980885" to="644688223"/>
    <trip id="moto248" type="moto_motorcycle" depart="1623.97" departLane="best" from="-399014873" to="644707459"/>
    <trip id="moto249" type="moto_motorcycle" depart="1630.52" departLane="best" from="188622388#1" to="-637528634#1"/>
    <trip id="moto250" type="moto_motorcycle" depart="1637.07" departLane="best" from="168241645#0" to="652552360"/>
    <trip id="moto251" type="moto_motorcycle" depart="1643.62" departLane="best" from="480890249#1" to="718809176"/>
    <trip id="moto252" type="moto_motorcycle" depart="1650.17" departLane="best" from="533269493" to="718862556"/>
    <trip id="moto253" type="moto_motorcycle" depart="1656.71" departLane="best" from="464811045#2" to="597161507"/>
    <trip id="moto254" type="moto_motorcycle" depart="1663.26" departLane="best" departSpeed="max" from="638456456#0" to="-121883639#1"/>
    <trip id="moto255" type="moto_motorcycle" depart="1669.81" departLane="best" from="121895649#0" to="646690965"/>
    <trip id="moto256" type="moto_motorcycle" depart="1676.36" departLane="best" from="-646484110" to="646765971"/>
    <trip id="moto257" type="moto_motorcycle" depart="1682.91" departLane="best" from="325897271" to="-161886048#0"/>
    <trip id="moto258" type="moto_motorcycle" depart="1689.46" departLane="best" from="668585464" to="161886045"/>