<?xml version="1.0" encoding="UTF-8"?>

<!-- generated on 2022-10-05 18:42:21 by Eclipse SUMO polyconvert Version 1.14.1
<configuration xmlns:xsi="http://www.w3.org/2001/XMLSchema-instance" xsi:noNamespaceSchemaLocation="http://sumo.dlr.de/xsd/polyconvertConfiguration.xsd">

    <input>
        <net-file value="osm.net.xml"/>
        <osm-files value="osm_bbox.osm.xml.gz"/>
        <osm.keep-full-type value="true"/>
        <type-file value="/usr/share/sumo/data/typemap/osmPolyconvert.typ.xml"/>
    </input>

    <output>
        <output-file value="osm.poly.xml"/>
    </output>

    <report>
        <verbose value="true"/>
    </report>

</configuration>
-->

<additional xmlns:xsi="http://www.w3.org/2001/XMLSchema-instance" xsi:noNamespaceSchemaLocation="http://sumo.dlr.de/xsd/additional_file.xsd">
    <location netOffset="-352611.90,-139882.45" convBoundary="0.00,-2074.89,20057.21,22650.97" origBoundary="103.675226,1.246507,103.855517,1.470141" projParameter="+proj=utm +zone=48 +ellps=WGS84 +datum=WGS84 +units=m +no_defs"/>

    <poly id="1012250443" type="building.commercial" color="255,230,230" fill="1" layer="-1.00" shape="12885.462755,3971.754696 12880.264803,3968.462637 12877.059606,3944.031430 12874.012076,3923.535919 12869.574137,3904.047129 12869.427657,3900.233037 12870.562223,3899.392273 12877.804974,3897.266140 12890.430228,3888.802605 12904.056247,3878.923484 12916.551326,3877.458169 12926.688251,3877.663371 12939.945257,3887.231120 12948.355059,3905.634563 12948.974806,3921.830628 12949.032935,3927.037758 12949.542895,3946.329426 12948.678113,3952.874718 12942.817533,3960.019402 12917.661362,3964.796390 12885.462755,3971.754696"/>
    <poly id="1013019768" type="landuse.grass" color="194,194,130" fill="1" layer="-3.00" shape="11741.853544,3525.106799 11733.218019,3500.313290 11733.583384,3496.509994 11729.342968,3494.533087 11714.451430,3487.597356 11710.594217,3495.747179 11715.223106,3495.689670 11720.818623,3492.646690 11725.930465,3501.897749 11739.528647,3526.534089 11741.853544,3525.106799"/>
    <poly id="1015220604" type="landuse.garages" color="194,194,130" fill="1" layer="-3.00" shape="14886.668452,2613.965499 14886.574229,2602.832690 14907.648907,2602.645949 14907.437605,2579.086853 14922.492538,2578.958206 14922.798060,2613.650109 14886.668452,2613.965499"/>
    <poly id="1018518821" type="amenity.parking" color="184,184,179" fill="1" layer="-1.00" shape="10548.951493,4239.114677 10607.715123,4172.376343 10613.080032,4175.635134 10553.125937,4242.672549 10548.951493,4239.114677"/>
    <poly id="1026224035" type="natural.scrub" color="140,196,107" fill="1" layer="-4.00" shape="12584.928148,4200.041223 12610.908116,4219.210105 12636.197452,4236.831542 12672.125675,4257.255970 12684.312630,4262.954772 12665.018445,4286.645034 12644.446856,4314.935025 12636.784976,4324.733928 12576.936612,4287.859309 12537.031976,4259.111974 12533.476511,4246.842022 12532.026694,4240.010389 12538.717117,4223.147451 12584.928148,4200.041223"/>
    <poly id="1026617183" type="landuse.construction" color="194,194,130" fill="1" layer="-3.00" shape="12782.463859,4306.720705 12701.294038,4265.865270 12679.453537,4293.293530 12654.855162,4324.150343 12648.038268,4332.544785 12663.866465,4343.791716 12688.276273,4360.429623 12704.537615,4369.995901 12717.671547,4378.137519 12762.947305,4330.764841 12782.463859,4306.720705"/>
    <poly id="1026618059" type="leisure.park" color="207,245,201" fill="1" layer="-2.00" shape="12809.337139,4100.831477 12827.578046,4108.185714 12827.274349,4124.570173 12826.561226,4145.697655 12825.003929,4169.921095 12817.623455,4209.636146 12809.693670,4240.838695 12742.336783,4208.633092 12759.294825,4186.071633 12774.895276,4163.333942 12789.737482,4137.257843 12801.544552,4116.534088 12809.337139,4100.831477"/>
    <poly id="1032433596" type="landuse.construction" color="194,194,130" fill="1" layer="-3.00" shape="12721.239336,4969.828627 12812.668882,4988.999002 12819.212762,4968.321978 12849.893633,4975.471158 12809.656758,5134.060238 12796.252230,5164.568962 12685.324572,5138.221972 12679.971822,5136.953174 12693.329844,5102.320737 12721.239336,4969.828627"/>
    <poly id="103541883" type="building.yes" color="255,230,230" fill="1" layer="-1.00" shape="11699.675099,4730.517385 11653.930759,4752.153290 11652.460475,4749.069497 11698.483194,4727.842513 11699.675099,4730.517385"/>
    <poly id="103541940" type="leisure.swimming_pool" color="207,245,201" fill="1" layer="-2.00" shape="11301.008034,4883.809354 11283.705716,4884.669078 11283.188849,4874.387623 11300.491174,4873.538955 11301.008034,4883.809354"/>
    <poly id="103541940#1" type="sport.swimming" color="79,230,125" fill="1" layer="-2.00" shape="11301.008034,4883.809354 11283.705716,4884.669078 11283.188849,4874.387623 11300.491174,4873.538955 11301.008034,4883.809354"/>
    <poly id="103541954" type="building.yes" color="255,230,230" fill="1" layer="-1.00" shape="11699.316043,4724.370655 11702.345916,4731.135200 11702.991151,4730.847441 11703.748614,4732.527521 11703.136750,4732.793153 11713.373745,4755.717458 11712.328013,4756.171245 11711.104290,4756.713563 11705.345293,4743.836608 11704.844679,4744.057963 11704.521637,4743.328451 11704.198601,4742.609995 11704.932837,4742.289026 11699.675099,4730.517385 11698.483194,4727.842513 11697.324707,4725.245014 11699.316043,4724.370655"/>
    <poly id="103541961" type="building.yes" color="255,230,230" fill="1" layer="-1.00" shape="11242.202745,5137.951047 11247.860404,5148.307379 11314.267495,5171.569058 11316.027541,5175.570324 11319.320999,5175.203879 11325.795345,5171.817701 11326.742233,5174.028358 11327.522025,5175.852151 11321.959597,5178.198657 11313.838260,5181.231861 11313.481803,5180.436032 11310.422442,5181.675755 11307.140588,5183.015087 11305.224540,5178.560618 11309.652264,5176.756390 11308.471500,5174.125735 11244.523642,5151.139244 11238.208919,5139.633452 11239.822048,5139.002493 11242.202745,5137.951047"/>
    <poly id="103541972" type="building.yes" color="255,230,230" fill="1" layer="-1.00" shape="11291.013190,4992.347049 11301.392775,4988.140853 11297.649916,4979.674092 11287.303777,4984.012939 11291.013190,4992.347049"/>
    <poly id="103541987" type="building.yes" color="255,230,230" fill="1" layer="-1.00" shape="11569.749585,4834.901095 11567.020333,4828.534404 11568.388671,4827.914625 11569.445524,4827.449776 11572.798446,4834.943833 11569.683495,4836.283075 11569.182224,4835.155649 11569.749585,4834.901095"/>
    <poly id="103542000" type="building.yes" color="255,230,230" fill="1" layer="-1.00" shape="11785.720580,4660.151031 11786.922082,4659.675058 11791.249717,4657.970398 11793.121160,4662.259055 11790.373307,4663.399113 11789.538937,4663.742241 11788.892875,4662.327441 11787.090653,4663.102206 11785.720580,4660.151031"/>
    <poly id="103542010" type="landuse.recreation_ground" color="194,194,130" fill="1" layer="-3.00" shape="11400.139095,4927.773326 11390.639365,4910.829731 11381.510940,4902.310319 11370.490898,4893.791829 11352.682723,4884.115812 11348.154112,4838.779018 11410.596506,4809.307527 11449.813471,4842.101421 11423.298421,4844.093293 11429.459215,4927.902750 11400.139095,4927.773326"/>
    <poly id="103542010#1" type="sport.soccer" color="79,230,125" fill="1" layer="-2.00" shape="11400.139095,4927.773326 11390.639365,4910.829731 11381.510940,4902.310319 11370.490898,4893.791829 11352.682723,4884.115812 11348.154112,4838.779018 11410.596506,4809.307527 11449.813471,4842.101421 11423.298421,4844.093293 11429.459215,4927.902750 11400.139095,4927.773326"/>
    <poly id="103542014" type="building.yes" color="255,230,230" fill="1" layer="-1.00" shape="11380.185107,4967.251536 11377.036770,4968.579744 11380.534063,4975.476730 11382.817870,4981.091858 11392.296213,4977.007718 11394.668606,4981.738355 11401.017836,4995.576863 11404.700158,4994.005171 11408.771837,4992.245345 11403.792779,4981.545958 11398.664343,4983.969636 11393.017337,4972.618295 11384.540442,4976.713001 11382.969809,4973.220199 11381.243309,4969.550584 11380.185107,4967.251536"/>
    <poly id="103542022" type="building.yes" color="255,230,230" fill="1" layer="-1.00" shape="11736.481327,4679.776487 11737.393538,4679.333820 11732.815828,4670.170966 11731.824555,4668.203554 11731.357311,4668.402781 11730.867824,4668.624130 11731.859097,4670.591543 11736.481327,4679.776487"/>
    <poly id="103542026" type="building.yes" color="255,230,230" fill="1" layer="-1.00" shape="11539.991595,4758.156622 11539.290767,4758.532853 11546.118934,4773.366132 11544.617091,4774.030198 11537.866744,4759.053159 11536.976776,4759.473705 11536.709439,4758.887888 11536.341872,4758.125232 11538.066172,4757.284168 11539.267620,4756.697637 11539.590625,4757.349759 11539.991595,4758.156622"/>
    <poly id="103542034" type="building.yes" color="255,230,230" fill="1" layer="-1.00" shape="11772.366760,4634.685455 11762.319642,4613.209338 11794.180973,4599.109065 11804.094986,4621.458638 11772.366760,4634.685455"/>
    <poly id="103542039" type="building.yes" color="255,230,230" fill="1" layer="-1.00" shape="11352.439455,4910.063417 11353.853942,4912.804515 11355.079089,4915.180871 11367.185823,4938.778663 11364.104275,4940.162116 11351.663321,4915.735317 11352.820508,4915.657363 11352.719640,4914.175962 11352.439455,4910.063417"/>
    <poly id="103542046" type="building.yes" color="255,230,230" fill="1" layer="-1.00" shape="11745.569089,4696.255946 11744.167384,4696.908906 11736.849151,4681.069811 11736.092703,4681.479235 11735.513485,4680.230236 11736.481327,4679.776487 11737.393538,4679.333820 11738.617240,4678.747280 11739.174140,4679.863624 11738.106175,4680.361643 11739.654444,4683.644399 11745.569089,4696.255946"/>
    <poly id="103542063" type="building.yes" color="255,230,230" fill="1" layer="-1.00" shape="11753.209665,4711.387327 11761.284845,4727.845165 11764.526068,4734.476940 11762.011880,4735.605830 11750.806722,4712.460885 11751.974815,4711.929650 11753.209665,4711.387327"/>
    <poly id="103542077" type="building.yes" color="255,230,230" fill="1" layer="-1.00" shape="11406.125927,4997.066875 11404.956346,4994.546770 11404.700158,4994.005171 11401.017836,4995.576863 11401.307439,4996.184779 11402.510396,4998.693812 11406.125927,4997.066875"/>
    <poly id="103542082" type="leisure.garden" color="207,245,201" fill="1" layer="-2.00" shape="11782.579337,4790.641577 11768.466003,4759.283750 11726.003130,4778.751155 11740.294259,4809.600339 11777.473041,4792.833063 11782.579337,4790.641577"/>
    <poly id="103542084" type="building.college" color="255,230,230" fill="1" layer="-1.00" shape="11163.970317,5097.791138 11161.085393,5091.678800 11132.361159,5081.389027 11127.510826,5083.657800 11121.670323,5086.225558 11158.897448,5100.071074 11163.970317,5097.791138"/>
    <poly id="103542088" type="building.yes" color="255,230,230" fill="1" layer="-1.00" shape="11495.289472,4977.676097 11495.825804,4959.423054 11496.604013,4935.177762 11496.658824,4933.486229 11493.499441,4934.980274 11493.444619,4936.649695 11491.995869,4977.744036 11495.289472,4977.676097"/>
    <poly id="103542092" type="building.yes" color="255,230,230" fill="1" layer="-1.00" shape="11501.289786,4800.684208 11499.910320,4801.303993 11498.597606,4801.901634 11515.931493,4843.031047 11513.283742,4844.082618 11514.709579,4847.288045 11517.613163,4846.048405 11527.872654,4869.414926 11526.504278,4869.957317 11527.718463,4872.676401 11539.125149,4898.297702 11540.393359,4897.711138 11541.617065,4897.135651 11531.146040,4873.526011 11532.992787,4872.784387 11525.596248,4856.138271 11526.185847,4855.850538 11525.918505,4855.253667 11525.573208,4854.524166 11524.883491,4854.867225 11509.277033,4819.320046 11510.300516,4818.877324 11509.877232,4817.948860 11509.465107,4817.086725 11508.497244,4817.496253 11503.294784,4805.017024 11501.991534,4802.198483 11501.289786,4800.684208"/>
    <poly id="103542093" type="building.yes" color="255,230,230" fill="1" layer="-1.00" shape="11216.096374,5065.461175 11214.904698,5063.272748 11199.330393,5070.875562 11197.041485,5077.598487 11200.057064,5077.840236 11202.146417,5072.620970 11216.096374,5065.461175"/>
    <poly id="103542100" type="building.yes" color="255,230,230" fill="1" layer="-1.00" shape="11775.442921,4690.956870 11797.514542,4681.383076 11798.405664,4683.339481 11796.002753,4684.479372 11803.288346,4701.855207 11802.620862,4702.154032 11802.198122,4702.342182 11801.407107,4700.308339 11795.358409,4686.602356 11794.656642,4685.043860 11776.289481,4692.802741 11775.442921,4690.956870"/>
    <poly id="1035571338" type="leisure.park" color="207,245,201" fill="1" layer="-2.00" shape="11839.992468,3357.070030 11847.626424,3358.514640 11836.997248,3329.764194 11820.543003,3335.775285 11823.183590,3342.926974 11833.396574,3339.207389 11839.992468,3357.070030"/>
    <poly id="1035571587" type="amenity.parking" color="184,184,179" fill="1" layer="-1.00" shape="12264.828674,1534.743750 12276.690522,1535.147192 12293.547889,1487.202309 12281.751119,1483.238944 12264.828674,1534.743750"/>
    <poly id="103926503" type="building.commercial" color="255,230,230" fill="1" layer="-1.00" shape="11352.838836,2353.246606 11388.301909,2400.724444 11340.894286,2435.660739 11317.545436,2404.406710 11305.431197,2388.182904 11352.838836,2353.246606"/>
    <poly id="103926504" type="building.commercial" color="255,230,230" fill="1" layer="-1.00" shape="11439.441975,2120.053746 11506.271622,2071.996321 11525.579405,2099.427068 11460.351731,2146.720889 11439.441975,2120.053746"/>
    <poly id="103926505" type="building.commercial" color="255,230,230" fill="1" layer="-1.00" shape="11249.557726,2218.439927 11227.578075,2188.346062 11250.247209,2171.132691 11274.141095,2201.955309 11249.557726,2218.439927"/>
    <poly id="103926506" type="building.commercial" color="255,230,230" fill="1" layer="-1.00" shape="11148.202904,2225.729928 11170.282294,2208.527881 11203.184680,2252.955623 11181.283121,2269.715360 11148.202904,2225.729928"/>
    <poly id="103926507" type="building.commercial" color="255,230,230" fill="1" layer="-1.00" shape="11277.588768,2198.238977 11255.976820,2169.184161 11282.806226,2149.193848 11304.351517,2178.480864 11277.588768,2198.238977"/>
    <poly id="103926508" type="building.commercial" color="255,230,230" fill="1" layer="-1.00" shape="11207.782546,2420.136207 11163.490352,2361.938669 11190.264140,2342.047850 11234.233235,2399.416375 11207.782546,2420.136207"/>
    <poly id="103926509" type="building.commercial" color="255,230,230" fill="1" layer="-1.00" shape="11297.669259,2351.968490 11253.833483,2294.113451 11292.665144,2265.681954 11335.154746,2324.035142 11297.669259,2351.968490"/>
    <poly id="103926510" type="building.commercial" color="255,230,230" fill="1" layer="-1.00" shape="11408.468364,2385.568617 11372.348699,2337.903148 11418.888492,2303.111016 11431.414575,2319.644184 11455.008143,2350.776488 11408.468364,2385.568617"/>
    <poly id="103926511" type="building.commercial" color="255,230,230" fill="1" layer="-1.00" shape="11402.441387,2277.757362 11358.916833,2219.106164 11381.007983,2203.230812 11424.009490,2261.760649 11402.441387,2277.757362"/>
    <poly id="103926512" type="building.commercial" color="255,230,230" fill="1" layer="-1.00" shape="11122.485444,2244.072452 11144.019903,2227.511886 11177.389929,2272.536405 11155.109769,2288.721437 11122.485444,2244.072452"/>
    <poly id="103926513" type="building.commercial" color="255,230,230" fill="1" layer="-1.00" shape="11193.712446,2339.658186 11215.603378,2323.959789 11259.472450,2381.604753 11237.069832,2397.635063 11193.712446,2339.658186"/>
    <poly id="103926514" type="building.commercial" color="255,230,230" fill="1" layer="-1.00" shape="11223.951925,2446.374440 11253.446998,2485.872994 11279.064017,2466.999849 11283.239423,2472.591977 11308.400385,2454.050724 11311.929995,2458.780826 11329.916409,2445.516539 11305.721340,2413.124191 11317.545436,2404.406710 11305.431197,2388.182904 11304.540444,2386.989326 11223.951925,2446.374440"/>
    <poly id="103926515" type="building.commercial" color="255,230,230" fill="1" layer="-1.00" shape="11428.102670,2258.309345 11384.633973,2200.100343 11407.515087,2184.069839 11449.859864,2242.157769 11428.102670,2258.309345"/>
    <poly id="103926516" type="building.commercial" color="255,230,230" fill="1" layer="-1.00" shape="11461.545187,2152.657171 11528.986116,2103.129062 11546.300189,2126.525469 11480.662034,2176.362271 11461.545187,2152.657171"/>
    <poly id="103926517" type="building.commercial" color="255,230,230" fill="1" layer="-1.00" shape="11191.634031,2205.399967 11218.084999,2185.188709 11244.563252,2221.924834 11218.423843,2242.113830 11191.634031,2205.399967"/>
    <poly id="103926518" type="building.commercial" color="255,230,230" fill="1" layer="-1.00" shape="11453.920176,2239.778874 11410.585085,2181.713529 11437.448121,2162.253892 11480.682734,2219.644896 11453.920176,2239.778874"/>
    <poly id="103926519" type="building.commercial" color="255,230,230" fill="1" layer="-1.00" shape="11371.403572,2130.168987 11355.569756,2107.512594 11382.644567,2088.771467 11398.255432,2110.587743 11371.403572,2130.168987"/>
    <poly id="103926520" type="building.commercial" color="255,230,230" fill="1" layer="-1.00" shape="11320.236109,2167.727219 11303.812847,2145.712334 11326.037217,2129.173580 11341.770580,2151.177741 11320.236109,2167.727219"/>
    <poly id="103926521" type="building.commercial" color="255,230,230" fill="1" layer="-1.00" shape="11125.176953,2310.957561 11092.152700,2267.690719 11118.892906,2247.346633 11151.750581,2291.321115 11125.176953,2310.957561"/>
    <poly id="103926522" type="building.commercial" color="255,230,230" fill="1" layer="-1.00" shape="11481.854353,2179.921601 11549.361738,2129.774349 11569.525802,2156.132290 11502.763822,2206.002793 11481.854353,2179.921601"/>
    <poly id="103926523" type="building.commercial" color="255,230,230" fill="1" layer="-1.00" shape="11535.008486,2248.075999 11518.282304,2220.809861 11589.293209,2167.421655 11600.638395,2181.047772 11552.323346,2249.847669 11535.008486,2248.075999"/>
    <poly id="103926524" type="building.commercial" color="255,230,230" fill="1" layer="-1.00" shape="11348.258335,2315.007498 11305.223995,2257.682740 11343.276649,2229.030521 11385.509971,2286.687333 11348.258335,2315.007498"/>
    <poly id="103926525" type="building.commercial" color="255,230,230" fill="1" layer="-1.00" shape="11413.164054,2083.306467 11477.935109,2035.117356 11494.324985,2057.176484 11429.887414,2104.646819 11413.164054,2083.306467"/>
    <poly id="103926526" type="building.commercial" color="255,230,230" fill="1" layer="-1.00" shape="11345.641742,2148.821047 11329.418801,2126.861342 11351.331732,2110.577021 11368.033057,2132.359608 11345.641742,2148.821047"/>
    <poly id="103926527" type="building.commercial" color="255,230,230" fill="1" layer="-1.00" shape="11263.209577,2378.197836 11219.707562,2320.254194 11241.809055,2302.764693 11285.422964,2362.023899 11263.209577,2378.197836"/>
    <poly id="103926528" type="building.commercial" color="255,230,230" fill="1" layer="-1.00" shape="11468.723632,2341.549558 11444.640156,2309.765208 11431.414575,2319.644184 11418.888492,2303.111016 11501.067287,2241.679991 11530.717901,2280.824703 11504.377972,2300.505198 11507.762800,2304.981091 11483.013506,2323.477882 11486.587614,2328.196908 11468.723632,2341.549558"/>
    <poly id="103935779" type="building.yes" color="255,230,230" fill="1" layer="-1.00" shape="11657.293267,2100.403395 11686.537058,2079.925555 11687.430209,2086.149422 11685.039975,2090.605962 11666.847102,2114.328869 11657.293267,2100.403395"/>
    <poly id="103935780" type="building.yes" color="255,230,230" fill="1" layer="-1.00" shape="11605.088821,2156.756524 11660.584863,2119.373205 11662.979060,2123.219405 11619.218641,2176.284994 11605.088821,2156.756524"/>
    <poly id="103935782" type="building.yes" color="255,230,230" fill="1" layer="-1.00" shape="11585.076146,2121.189209 11604.784985,2149.636872 11656.109300,2114.333995 11647.145209,2100.408239 11693.386501,2069.552151 11699.359005,2063.612455 11704.429216,2055.605795 11705.617855,2051.459385 11699.649543,2042.860989 11585.076146,2121.189209"/>
    <poly id="103935782#1" type="shop.car" color="237,199,255" fill="1" layer="-1.00" shape="11585.076146,2121.189209 11604.784985,2149.636872 11656.109300,2114.333995 11647.145209,2100.408239 11693.386501,2069.552151 11699.359005,2063.612455 11704.429216,2055.605795 11705.617855,2051.459385 11699.649543,2042.860989 11585.076146,2121.189209"/>
    <poly id="103935783" type="building.yes" color="255,230,230" fill="1" layer="-1.00" shape="11576.418431,2119.711895 11567.465456,2105.775077 11695.153806,2018.850409 11699.039908,2024.486903 11691.286893,2030.117892 11695.463010,2037.235695 11576.418431,2119.711895"/>
    <poly id="103936246" type="building.yes" color="255,230,230" fill="1" layer="-1.00" shape="11125.834767,2313.676923 11399.592871,2115.119896 11405.249213,2122.833995 11131.502244,2321.379959 11125.834767,2313.676923"/>
    <poly id="103936252" type="building.commercial" color="255,230,230" fill="1" layer="-1.00" shape="11147.068037,2341.946966 11422.048705,2140.492797 11435.287396,2157.998523 11161.998805,2360.911214 11147.068037,2341.946966"/>
    <poly id="104147227" type="building.yes" color="255,230,230" fill="1" layer="-1.00" shape="9960.591349,5037.222528 9979.765222,5018.097855 10019.386263,5057.270587 10010.989354,5065.643853 10000.212401,5076.406314 9960.591349,5037.222528"/>
    <poly id="104147228" type="building.yes" color="255,230,230" fill="1" layer="-1.00" shape="9980.966447,5017.058031 10002.142227,4995.920247 10041.763269,5035.104039 10020.576361,5056.230770 9980.966447,5017.058031"/>
    <poly id="104147231" type="building.yes" color="255,230,230" fill="1" layer="-1.00" shape="9938.826051,5058.802838 9959.846121,5037.819901 9999.467168,5076.992631 9978.435977,5097.975571 9938.826051,5058.802838"/>
    <poly id="104352121" type="building.retail" color="255,230,230" fill="1" layer="-1.00" shape="12528.644494,4633.357536 12527.890002,4614.762459 12522.507015,4596.976672 12518.331125,4590.312189 12515.715104,4587.936507 12515.413279,4585.051154 12515.935219,4582.906124 12513.998095,4580.828615 12515.410808,4579.932433 12513.328857,4577.490161 12518.100180,4572.899804 12522.649633,4569.702553 12532.796287,4567.033269 12542.042535,4566.210698 12546.526516,4565.688924 12603.440595,4540.167374 12605.755112,4540.321036 12607.391407,4541.580580 12615.601685,4538.381568 12626.112511,4529.443617 12636.724148,4544.971549 12635.157334,4549.350301 12638.584376,4549.116483 12638.585271,4550.973815 12640.454948,4551.636246 12642.467779,4549.192000 12645.894150,4547.565182 12648.887309,4547.486351 12651.269477,4549.486257 12653.507138,4551.784733 12662.090364,4560.525534 12662.770440,4563.266982 12662.026313,4566.152839 12665.156323,4572.972604 12667.849192,4573.192417 12668.896927,4576.895520 12670.692827,4586.092870 12669.872202,4591.864262 12667.784056,4599.648374 12664.203378,4604.326597 12665.394800,4606.028577 12668.755761,4607.209901 12671.514892,4606.390460 12674.272883,4603.205132 12677.552383,4596.979278 12679.502523,4602.981500 12678.312923,4605.060517 12681.140176,4607.060208 12682.487165,4608.319891 12682.491093,4616.467828 12679.654141,4617.431028 12679.297133,4638.558351 12681.233214,4638.480029 12680.110878,4641.598235 12678.321945,4646.850482 12649.676529,4638.130414 12642.511843,4640.577146 12629.683809,4643.767331 12619.603209,4644.955138 12620.346726,4640.808948 12609.975748,4639.774730 12596.848749,4646.005338 12589.315544,4645.710473 12587.670735,4649.868154 12584.322795,4652.611546 12581.185592,4653.950782 12553.803496,4657.590218 12551.867339,4657.513764 12550.375841,4656.552651 12541.786524,4658.259352 12539.846327,4649.813847 12537.465160,4649.892385 12536.785440,4647.891658 12531.088369,4647.927575 12528.644494,4633.357536"/>
    <poly id="104352121#1" type="shop.mall" color="237,199,255" fill="1" layer="-1.00" shape="12528.644494,4633.357536 12527.890002,4614.762459 12522.507015,4596.976672 12518.331125,4590.312189 12515.715104,4587.936507 12515.413279,4585.051154 12515.935219,4582.906124 12513.998095,4580.828615 12515.410808,4579.932433 12513.328857,4577.490161 12518.100180,4572.899804 12522.649633,4569.702553 12532.796287,4567.033269 12542.042535,4566.210698 12546.526516,4565.688924 12603.440595,4540.167374 12605.755112,4540.321036 12607.391407,4541.580580 12615.601685,4538.381568 12626.112511,4529.443617 12636.724148,4544.971549 12635.157334,4549.350301 12638.584376,4549.116483 12638.585271,4550.973815 12640.454948,4551.636246 12642.467779,4549.192000 12645.894150,4547.565182 12648.887309,4547.486351 12651.269477,4549.486257 12653.507138,4551.784733 12662.090364,4560.525534 12662.770440,4563.266982 12662.026313,4566.152839 12665.156323,4572.972604 12667.849192,4573.192417 12668.896927,4576.895520 12670.692827,4586.092870 12669.872202,4591.864262 12667.784056,4599.648374 12664.203378,4604.326597 12665.394800,4606.028577 12668.755761,4607.209901 12671.514892,4606.390460 12674.272883,4603.205132 12677.552383,4596.979278 12679.502523,4602.981500 12678.312923,4605.060517 12681.140176,4607.060208 12682.487165,4608.319891 12682.491093,4616.467828 12679.654141,4617.431028 12679.297133,4638.558351 12681.233214,4638.480029 12680.110878,4641.598235 12678.321945,4646.850482 12649.676529,4638.130414 12642.511843,4640.577146 12629.683809,4643.767331 12619.603209,4644.955138 12620.346726,4640.808948 12609.975748,4639.774730 12596.848749,4646.005338 12589.315544,4645.710473 12587.670735,4649.868154 12584.322795,4652.611546 12581.185592,4653.950782 12553.803496,4657.590218 12551.867339,4657.513764 12550.375841,4656.552651 12541.786524,4658.259352 12539.846327,4649.813847 12537.465160,4649.892385 12536.785440,4647.891658 12531.088369,4647.927575 12528.644494,4633.357536"/>
    <poly id="104352308" type="building.office" color="255,230,230" fill="1" layer="-1.00" shape="13450.610962,4230.758458 13499.126724,4187.475030 13485.499941,4172.401815 13510.714351,4149.902849 13513.620062,4153.118616 13515.989128,4151.005881 13533.434521,4170.300481 13532.261744,4184.319435 13531.476165,4193.628555 13485.407328,4234.732867 13468.134296,4250.141460 13450.610962,4230.758458"/>
    <poly id="104352314" type="building.commercial" color="255,230,230" fill="1" layer="-1.00" shape="13482.599273,4389.190847 13460.789378,4364.315312 13590.655707,4251.940239 13611.953449,4276.219029 13605.101987,4282.148057 13608.519876,4286.060076 13587.398247,4304.344931 13585.160480,4301.792176 13571.357452,4313.727672 13573.673151,4316.368833 13526.068859,4357.573386 13518.720967,4349.196819 13505.507435,4360.623487 13513.077992,4369.254224 13492.924025,4386.687360 13489.717670,4383.029518 13482.599273,4389.190847"/>
    <poly id="104382639" type="building.yes" color="255,230,230" fill="1" layer="-1.00" shape="14108.801915,3458.815278 14119.566772,3445.731535 14139.235941,3461.708474 14128.482212,3474.792210 14108.801915,3458.815278"/>
    <poly id="104382639#1" type="leisure.swimming_pool" color="207,245,201" fill="1" layer="-2.00" shape="14108.801915,3458.815278 14119.566772,3445.731535 14139.235941,3461.708474 14128.482212,3474.792210 14108.801915,3458.815278"/>
    <poly id="104382641" type="building.yes" color="255,230,230" fill="1" layer="-1.00" shape="14100.620297,3428.560261 14109.272213,3418.031338 14117.475913,3424.406477 14108.467982,3435.046123 14100.620297,3428.560261"/>
    <poly id="104382641#1" type="leisure.swimming_pool" color="207,245,201" fill="1" layer="-2.00" shape="14100.620297,3428.560261 14109.272213,3418.031338 14117.475913,3424.406477 14108.467982,3435.046123 14100.620297,3428.560261"/>
    <poly id="104382647" type="building.yes" color="255,230,230" fill="1" layer="-1.00" shape="14121.968973,3443.077080 14129.119501,3434.185081 14148.900364,3451.057462 14141.783218,3459.949445 14121.968973,3443.077080"/>
    <poly id="104382647#1" type="leisure.swimming_pool" color="207,245,201" fill="1" layer="-2.00" shape="14121.968973,3443.077080 14129.119501,3434.185081 14148.900364,3451.057462 14141.783218,3459.949445 14121.968973,3443.077080"/>
    <poly id="104382653" type="building.yes" color="255,230,230" fill="1" layer="-1.00" shape="14089.154766,3442.351888 14099.719514,3429.644126 14107.611697,3436.107856 14097.046949,3448.815618 14089.154766,3442.351888"/>
    <poly id="104382653#1" type="leisure.swimming_pool" color="207,245,201" fill="1" layer="-2.00" shape="14089.154766,3442.351888 14099.719514,3429.644126 14107.611697,3436.107856 14097.046949,3448.815618 14089.154766,3442.351888"/>
    <poly id="104660457" type="building.yes" color="255,230,230" fill="1" layer="-1.00" shape="11362.710104,5047.435251 11355.960173,5033.353716 11359.608875,5031.295594 11361.390914,5034.766181 11366.826140,5045.365845 11362.710104,5047.435251"/>