<?xml version="1.0" encoding="UTF-8"?>

<!-- generated on 2022-10-05 18:42:28.923463 by osmWebWizard.py UNKNOWN
<configuration>
    <allow-fringe.min-length value="1000.0"/>
    <end value="3600"/>
    <fringe-factor value="5.0"/>
    <fringe-start-attributes value="departSpeed=&quot;max&quot;"/>
    <lanes value="True"/>
    <min-distance value="300.0"/>
    <net-file value="/usr/share/sumo/tools/2022-10-05-18-41-56/osm.net.xml"/>
    <period value="2.1907075952672184"/>
    <route-file value="/usr/share/sumo/tools/2022-10-05-18-41-56/osm.passenger.rou.xml"/>
    <trip-attributes value="departLane=&quot;best&quot;"/>
    <output-trip-file value="/usr/share/sumo/tools/2022-10-05-18-41-56/osm.passenger.trips.xml"/>
    <prefix value="veh"/>
    <validate value="True"/>
    <vehicle-class value="passenger"/>
</configuration>
-->

<!-- generated on 2022-10-05 18:42:27 by Eclipse SUMO duarouter Version 1.14.1
<configuration xmlns:xsi="http://www.w3.org/2001/XMLSchema-instance" xsi:noNamespaceSchemaLocation="http://sumo.dlr.de/xsd/duarouterConfiguration.xsd">

    <input>
        <net-file value="/usr/share/sumo/tools/2022-10-05-18-41-56/osm.net.xml"/>
        <route-files value="/usr/share/sumo/tools/2022-10-05-18-41-56/osm.passenger.trips.xml"/>
    </input>

    <output>
        <output-file value="/usr/share/sumo/tools/2022-10-05-18-41-56/osm.passenger.trips.xml.tmp"/>
        <alternatives-output value="NUL"/>
        <write-trips value="true"/>
    </output>

    <time>
        <begin value="0"/>
        <end value="3600"/>
    </time>

    <report>
        <no-warnings value="true"/>
        <ignore-errors value="true"/>
        <no-step-log value="true"/>
    </report>

</configuration>
-->

<routes xmlns:xsi="http://www.w3.org/2001/XMLSchema-instance" xsi:noNamespaceSchemaLocation="http://sumo.dlr.de/xsd/routes_file.xsd">
    <vType id="veh_passenger" vClass="passenger"/>
    <trip id="veh1" type="veh_passenger" depart="2.19" departLane="best" from="22955695#0" to="173166844-AddedOnRampEdge"/>
    <trip id="veh2" type="veh_passenger" depart="4.38" departLane="best" from="652027920" to="644985827"/>
    <trip id="veh3" type="veh_passenger" depart="6.57" departLane="best" from="745794252#1" to="-644985030"/>
    <trip id="veh5" type="veh_passenger" depart="10.95" departLane="best" from="168242587#0" to="571801844#1"/>
    <trip id="veh6" type="veh_passenger" depart="13.14" departLane="best" from="-464811045#1" to="152437913#1"/>
    <trip id="veh7" type="veh_passenger" depart="15.33" departLane="best" from="643476842#0" to="633294709#1"/>
    <trip id="veh8" type="veh_passenger" depart="17.53" departLane="best" from="172367140#1" to="635471833#0"/>
    <trip id="veh10" type="veh_passenger" depart="21.91" departLane="best" from="674356255" to="646224368"/>
    <trip id="veh11" type="veh_passenger" depart="24.10" departLane="best" from="473486415#2" to="-744611505"/>
    <trip id="veh12" type="veh_passenger" depart="26.29" departLane="best" from="769560989" to="465029227#2"/>
    <trip id="veh13" type="veh_passenger" depart="28.48" departLane="best" from="-646200795" to="-646203981"/>
    <trip id="veh14" type="veh_passenger" depart="30.67" departLane="best" from="718875169" to="637363905"/>
    <trip id="veh15" type="veh_passenger" depart="32.86" departLane="best" from="676759461#0" to="646980300"/>
    <trip id="veh16" type="veh_passenger" depart="35.05" departLane="best" from="632603267" to="792847946"/>
    <trip id="veh17" type="veh_passenger" depart="37.24" departLane="best" from="479616088#1" to="633789158"/>
    <trip id="veh18" type="veh_passenger" depart="39.43" departLane="best" from="713561982" to="639035207"/>
    <trip id="veh19" type="veh_passenger" depart="41.62" departLane="best" from="727748985" to="634512030#0"/>
    <trip id="veh21" type="veh_passenger" depart="46.00" departLane="best" from="173166887#0" to="244362470"/>
    <trip id="veh22" type="veh_passenger" depart="48.20" departLane="best" from="-644688272" to="173767660#0"/>
    <trip id="veh23" type="veh_passenger" depart="50.39" departLane="best" from="-646225242" to="22964461"/>
    <trip id="veh24" type="veh_passenger" depart="52.58" departLane="best" from="640192073#1" to="479172522#0"/>
    <trip id="veh25" type="veh_passenger" depart="54.77" departLane="best" from="479541252#0" to="161886051#1"/>
    <trip id="veh26" type="veh_passenger" depart="56.96" departLane="best" from="22694120" to="750096867#1"/>
    <trip id="veh28" type="veh_passenger" depart="61.34" departLane="best" from="-96667082#2" to="646953679"/>
    <trip id="veh29" type="veh_passenger" depart="63.53" departLane="best" from="-786448304#0" to="479557960#0"/>
    <trip id="veh30" type="veh_passenger" depart="65.72" departLane="best" from="933704972" to="640189036"/>
    <trip id="veh31" type="veh_passenger" depart="67.91" departLane="best" from="634148811#0" to="645243280"/>
    <trip id="veh34" type="veh_passenger" depart="74.48" departLane="best" from="445282908" to="22694118"/>
    <trip id="veh35" type="veh_passenger" depart="76.67" departLane="best" from="161888196" to="75068664#0"/>
    <trip id="veh36" type="veh_passenger" depart="78.87" departLane="best" from="741971448" to="399015778"/>
    <trip id="veh37" type="veh_passenger" depart="81.06" departLane="best" from="644126003" to="480490547#0"/>
    <trip id="veh38" type="veh_passenger" depart="83.25" departLane="best" from="74860014#0" to="536908976#0"/>
    <trip id="veh39" type="veh_passenger" depart="85.44" departLane="best" from="22694105#0" to="173913048"/>
    <trip id="veh40" type="veh_passenger" depart="87.63" departLane="best" from="634181025" to="22278331#4"/>
    <trip id="veh42" type="veh_passenger" depart="92.01" departLane="best" from="480894181#0" to="168243073#0"/>
    <trip id="veh43" type="veh_passenger" depart="94.20" departLane="best" from="96681930#1" to="573704871"/>
    <trip id="veh44" type="veh_passenger" depart="96.39" departLane="best" from="-646194602" to="-633270575"/>
    <trip id="veh45" type="veh_passenger" depart="98.58" departLane="best" from="-646342857" to="639724530#0"/>
    <trip id="veh47" type="veh_passenger" depart="102.96" departLane="best" from="-640190450" to="479612875#1"/>
    <trip id="veh48" type="veh_passenger" depart="105.15" departLane="best" from="96678264" to="631906139#1"/>
    <trip id="veh49" type="veh_passenger" depart="107.34" departLane="best" from="792847944" to="725810412"/>
    <trip id="veh51" type="veh_passenger" depart="111.73" departLane="best" from="646196993" to="632238577"/>
    <trip id="veh52" type="veh_passenger" depart="113.92" departLane="best" from="22694119" to="640190447"/>
    <trip id="veh53" type="veh_passenger" depart="116.11" departLane="best" from="-646358020" to="512870348#1"/>
    <trip id="veh54" type="veh_passenger" depart="118.30" departLane="best" from="536908979" to="756415090"/>
    <trip id="veh55" type="veh_passenger" depart="120.49" departLane="best" from="741971444" to="22278609#1"/>
    <trip id="veh56" type="veh_passenger" depart="122.68" departLane="best" from="571801845" to="1057560066#0"/>
    <trip id="veh57" type="veh_passenger" depart="124.87" departLane="best" from="74859232#1" to="737200024#1"/>
    <trip id="veh58" type="veh_passenger" depart="127.06" departLane="best" from="325897325" to="640181885"/>
    <trip id="veh59" type="veh_passenger" depart="129.25" departLane="best" from="638470185#2" to="-730057173"/>
    <trip id="veh60" type="veh_passenger" depart="131.44" departLane="best" from="655621810" to="632501544"/>
    <trip id="veh61" type="veh_passenger" depart="133.63" departLane="best" from="-103926121" to="448937538#0"/>
    <trip id="veh62" type="veh_passenger" depart="135.82" departLane="best" from="-34834809#1" to="75007286"/>
    <trip id="veh63" type="veh_passenger" depart="138.01" departLane="best" from="742170149" to="712189770"/>
    <trip id="veh64" type="veh_passenger" depart="140.21" departLane="best" from="375699922#0" to="-638056038"/>
    <trip id="veh65" type="veh_passenger" depart="142.40" departLane="best" from="741980093#1" to="753790653"/>
    <trip id="veh66" type="veh_passenger" depart="144.59" departLane="best" from="-644994779#1" to="539777701"/>
    <trip id="veh67" type="veh_passenger" depart="146.78" departLane="best" from="-641124295" to="655138661"/>
    <trip id="veh68" type="veh_passenger" depart="148.97" departLane="best" from="655696048" to="-646889318#0"/>
    <trip id="veh69" type="veh_passenger" depart="151.16" departLane="best" from="539382324#0" to="633590337"/>
    <trip id="veh70" type="veh_passenger" depart="153.35" departLane="best" from="22694105#1" to="737645518"/>
    <trip id="veh72" type="veh_passenger" depart="157.73" departLane="best" departSpeed="max" from="633038160" to="647087597"/>
    <trip id="veh73" type="veh_passenger" depart="159.92" departLane="best" from="155923338#0" to="37354405"/>
    <trip id="veh74" type="veh_passenger" depart="162.11" departLane="best" from="528461168" to="594262559#0"/>
    <trip id="veh75" type="veh_passenger" depart="164.30" departLane="best" from="-646643503" to="173166855#1"/>
    <trip id="veh78" type="veh_passenger" depart="170.88" departLane="best" from="-643420308" to="639913991"/>
    <trip id="veh80" type="veh_passenger" depart="175.26" departLane="best" from="726132478#1" to="-640287787#1"/>
    <trip id="veh82" type="veh_passenger" depart="179.64" departLane="best" from="161972820" to="-665232124#0"/>
    <trip id="veh83" type="veh_passenger" depart="181.83" departLane="best" from="75061885" to="634232010#0"/>
    <trip id="veh84" type="veh_passenger" depart="184.02" departLane="best" from="539342410#2" to="656638028"/>
    <trip id="veh85" type="veh_passenger" depart="186.21" departLane="best" from="676779723#2" to="121895649#1"/>
    <trip id="veh88" type="veh_passenger" depart="192.78" departLane="best" from="649509393" to="644876765"/>
    <trip id="veh90" type="veh_passenger" depart="197.16" departLane="best" from="481628501" to="46648083#0"/>
    <trip id="veh92" type="veh_passenger" depart="201.55" departLane="best" from="123430145" to="533640827#0"/>
    <trip id="veh93" type="veh_passenger" depart="203.74" departLane="best" from="482272533#0" to="22964467"/>
    <trip id="veh94" type="veh_passenger" depart="205.93" departLane="best" from="174402277" to="749512949"/>
    <trip id="veh95" type="veh_passenger" depart="208.12" departLane="best" from="533640827#0" to="725839276"/>
    <trip id="veh96" type="veh_passenger" depart="210.31" departLane="best" from="633808874" to="-634140985"/>
    <trip id="veh97" type="veh_passenger" depart="212.50" departLane="best" from="97588119#0" to="713297270"/>
    <trip id="veh98" type="veh_passenger" depart="214.69" departLane="best" from="786143565#1" to="75007269#0"/>
    <trip id="veh99" type="veh_passenger" depart="216.88" departLane="best" from="719080516" to="-792825329"/>
    <trip id="veh100" type="veh_passenger" depart="219.07" departLane="best" from="539777719#0" to="162268372"/>
    <trip id="veh101" type="veh_passenger" depart="221.26" departLane="best" departSpeed="max" from="481041454" to="-638469885#0"/>
    <trip id="veh104" type="veh_passenger" depart="227.83" departLane="best" from="769560989" to="96677745#1"/>
    <trip id="veh106" type="veh_passenger" depart="232.22" departLane="best" from="-745008253" to="265150882#1"/>
    <trip id="veh107" type="veh_passenger" depart="234.41" departLane="best" from="786143564" to="634705636"/>
    <trip id="veh110" type="veh_passenger" depart="240.98" departLane="best" from="573253419#2" to="719080516"/>
    <trip id="veh112" type="veh_passenger" depart="245.36" departLane="best" from="-644695823#0" to="121291660"/>
    <trip id="veh113" type="veh_passenger" depart="247.55" departLane="best" from="635751584" to="644911146"/>
    <trip id="veh115" type="veh_passenger" depart="251.93" departLane="best" from="745687834" to="173913046"/>
    <trip id="veh116" type="veh_passenger" depart="254.12" departLane="best" from="635748164" to="639035208"/>
    <trip id="veh117" type="veh_passenger" depart="256.31" departLane="best" from="630807079" to="75007299"/>
    <trip id="veh118" type="veh_passenger" depart="258.50" departLane="best" from="159674807#0" to="646378520"/>
    <trip id="veh120" type="veh_passenger" depart="262.88" departLane="best" from="644985827" to="325897189#1"/>
    <trip id="veh121" type="veh_passenger" depart="265.08" departLane="best" from="44584659#0" to="652552360"/>
    <trip id="veh122" type="veh_passenger" depart="267.27" departLane="best" from="-643745428" to="536908963#1"/>
    <trip id="veh123" type="veh_passenger" depart="269.46" departLane="best" from="975272026" to="96678264"/>
    <trip id="veh124" type="veh_passenger" depart="271.65" departLane="best" from="-643845538" to="161972820"/>
    <trip id="veh126" type="veh_passenger" depart="276.03" departLane="best" from="744520689" to="741879585"/>
    <trip id="veh127" type="veh_passenger" depart="278.22" departLane="best" from="479540537#1" to="-745680922"/>
    <trip id="veh128" type="veh_passenger" depart="280.41" departLane="best" from="715670743" to="646265693#7"/>
    <trip id="veh129" type="veh_passenger" depart="282.60" departLane="best" from="638933998" to="850046997"/>
    <trip id="veh131" type="veh_passenger" depart="286.98" departLane="best" from="698713731#1" to="325024321#1"/>
    <trip id="veh132" type="veh_passenger" depart="289.17" departLane="best" from="644688223" to="75044395"/>
    <trip id="veh135" type="veh_passenger" depart="295.75" departLane="best" departSpeed="max" from="22905645#0" to="637713597#0"/>
    <trip id="veh136" type="veh_passenger" depart="297.94" departLane="best" from="646723491" to="159674805#0"/>
    <trip id="veh138" type="veh_passenger" depart="302.32" departLane="best" from="540282741" to="746961045"/>
    <trip id="veh139" type="veh_passenger" depart="304.51" departLane="best" from="718791003" to="-645334437#1"/>
    <trip id="veh141" type="veh_passenger" depart="308.89" departLane="best" from="-124962618#1" to="655627143"/>
    <trip id="veh142" type="veh_passenger" depart="311.08" departLane="best" from="652298363#1" to="633788297"/>
    <trip id="veh143" type="veh_passenger" depart="313.27" departLane="best" from="512870225#1" to="-161888203#0"/>
    <trip id="veh144" type="veh_passenger" depart="315.46" departLane="best" from="-644126003" to="742167351#1"/>
    <trip id="veh145" type="veh_passenger" depart="317.65" departLane="best" from="747309126" to="633328211"/>
    <trip id="veh146" type="veh_passenger" depart="319.84" departLane="best" from="716028816" to="634837987"/>
    <trip id="veh148" type="veh_passenger" depart="324.22" departLane="best" from="383281855" to="746594850"/>
    <trip id="veh149" type="veh_passenger" depart="326.42" departLane="best" from="667183793" to="725810412"/>
    <trip id="veh150" type="veh_passenger" depart="328.61" departLane="best" from="746736956#0" to="161888197#1"/>
    <trip id="veh151" type="veh_passenger" depart="330.80" departLane="best" from="174402277" to="-646224368"/>
    <trip id="veh154" type="veh_passenger" depart="337.37" departLane="best" from="-745002851" to="75007286-AddedOffRampEdge"/>
    <trip id="veh155" type="veh_passenger" depart="339.56" departLane="best" from="734395586" to="802915851"/>
    <trip id="veh156" type="veh_passenger" depart="341.75" departLane="best" from="688475489" to="741971456"/>
    <trip id="veh157" type="veh_passenger" depart="343.94" departLane="best" from="-453238704#0" to="649538096"/>
    <trip id="veh158" type="veh_passenger" depart="346.13" departLane="best" from="465029231#0" to="75007288"/>
    <trip id="veh159" type="veh_passenger" depart="348.32" departLane="best" from="669890940" to="726149686#1"/>
    <trip id="veh160" type="veh_passenger" depart="350.51" departLane="best" from="688475489" to="22694106"/>
    <trip id="veh161" type="veh_passenger" depart="352.70" departLane="best" from="660419333" to="-646265693#7"/>
    <trip id="veh163" type="veh_passenger" depart="357.09" departLane="best" from="173166844" to="680818088#0"/>
    <trip id="veh164" type="veh_passenger" depart="359.28" departLane="best" from="538766103" to="325897363"/>
    <trip id="veh165" type="veh_passenger" depart="361.47" departLane="best" from="666949183" to="173166882#1"/>
    <trip id="veh166" type="veh_passenger" depart="363.66" departLane="best" from="-440048517#0" to="136810597#1"/>
    <trip id="veh168" type="veh_passenger" depart="368.04" departLane="best" from="786141355" to="22964470#0"/>
    <trip id="veh169" type="veh_passenger" depart="370.23" departLane="best" from="640278283#0" to="480882209"/>
    <trip id="veh172" type="veh_passenger" depart="376.80" departLane="best" from="792090598#1" to="1054617353#1"/>
    <trip id="veh175" type="veh_passenger" depart="383.37" departLane="best" from="649423491" to="383281856"/>
    <trip id="veh176" type="veh_passenger" depart="385.56" departLane="best" departSpeed="max" from="638456456#0" to="573713867"/>
    <trip id="veh177" type="veh_passenger" depart="387.76" departLane="best" from="480424615" to="634505344#1"/>
    <trip id="veh180" type="veh_passenger" depart="394.33" departLane="best" from="632891973" to="646402504"/>
    <trip id="veh181" type="veh_passenger" depart="396.52" departLane="best" from="652325355" to="644704139"/>
    <trip id="veh183" type="veh_passenger" depart="400.90" departLane="best" from="644703365#0" to="464822188#0"/>
    <trip id="veh184" type="veh_passenger" depart="403.09" departLane="best" from="439740108" to="718753058"/>
    <trip id="veh185" type="veh_passenger" depart="405.28" departLane="best" from="646839094" to="325897256"/>
    <trip id="veh187" type="veh_passenger" depart="409.66" departLane="best" from="481627710#0" to="265150844#3"/>
    <trip id="veh190" type="veh_passenger" depart="416.23" departLane="best" from="747058652" to="638933995"/>
    <trip id="veh191" type="veh_passenger" depart="418.43" departLane="best" from="325897391#1" to="633569919#0"/>
    <trip id="veh192" type="veh_passenger" depart="420.62" departLane="best" from="-103926113#1" to="243309368#0"/>
    <trip id="veh193" type="veh_passenger" depart="422.81" departLane="best" from="512870361#0" to="634707177#1"/>
    <trip id="veh195" type="veh_passenger" depart="427.19" departLane="best" from="533640820" to="162268372"/>
    <trip id="veh196" type="veh_passenger" depart="429.38" departLane="best" from="539342411#1" to="746624516"/>
    <trip id="veh197" type="veh_passenger" depart="431.57" departLane="best" from="667183789" to="-859503830#0"/>
    <trip id="veh198" type="veh_passenger" depart="433.76" departLane="best" from="-644990808" to="584861197#0"/>
    <trip id="veh199" type="veh_passenger" depart="435.95" departLane="best" from="640181885" to="465013329#1"/>
    <trip id="veh200" type="veh_passenger" depart="438.14" departLane="best" from="701779991" to="652543330"/>
    <trip id="veh201" type="veh_passenger" depart="440.33" departLane="best" from="644988885" to="173166855#1"/>
    <trip id="veh202" type="veh_passenger" depart="442.52" departLane="best" from="152592779#0" to="-402064195#2"/>
    <trip id="veh203" type="veh_passenger" depart="444.71" departLane="best" from="173913043" to="539342399"/>
    <trip id="veh204" type="veh_passenger" depart="446.90" departLane="best" from="719654549" to="-641104114"/>
    <trip id="veh205" type="veh_passenger" depart="449.10" departLane="best" from="481691269" to="639874635#1"/>
    <trip id="veh206" type="veh_passenger" depart="451.29" departLane="best" from="141462462#1" to="646223538"/>
    <trip id="veh207" type="veh_passenger" depart="453.48" departLane="best" from="541940536#1" to="173896250#1"/>
    <trip id="veh208" type="veh_passenger" depart="455.67" departLane="best" from="644126007" to="-124962709#1"/>
    <trip id="veh209" type="veh_passenger" depart="457.86" departLane="best" from="654985989" to="655621810"/>
    <trip id="veh210" type="veh_passenger" depart="460.05" departLane="best" from="-646273422" to="481878541#2"/>
    <trip id="veh212" type="veh_passenger" depart="464.43" departLane="best" from="597117840" to="-634140985"/>
    <trip id="veh213" type="veh_passenger" depart="466.62" departLane="best" from="174262809" to="718753059"/>
    <trip id="veh214" type="veh_passenger" depart="468.81" departLane="best" departSpeed="max" from="537127400" to="664251194"/>
    <trip id="veh216" type="veh_passenger" depart="473.19" departLane="best" from="745713362" to="638469885#1"/>
    <trip id="veh217" type="veh_passenger" depart="475.38" departLane="best" from="646837495" to="571801841#1"/>
    <trip id="veh218" type="veh_passenger" depart="477.57" departLane="best" from="713565410" to="633569919#0"/>
    <trip id="veh219" type="veh_passenger" depart="479.76" departLane="best" from="746653374" to="652027921#0"/>
    <trip id="veh221" type="veh_passenger" depart="484.15" departLane="best" from="655696048" to="597117837"/>
    <trip id="veh223" type="veh_passenger" depart="488.53" departLane="best" from="-644332418#1" to="243305245#1"/>
    <trip id="veh224" type="veh_passenger" depart="490.72" departLane="best" from="22892548#3" to="440207146#0"/>
    <trip id="veh225" type="veh_passenger" depart="492.91" departLane="best" from="633263361#1" to="-671990771"/>
    <trip id="veh226" type="veh_passenger" depart="495.10" departLane="best" from="173767658#1" to="646216732"/>
    <trip id="veh227" type="veh_passenger" depart="497.29" departLane="best" from="646360400" to="-639999881"/>
    <trip id="veh228" type="veh_passenger" depart="499.48" departLane="best" from="481669051" to="632829453"/>
    <trip id="veh230" type="veh_passenger" depart="503.86" departLane="best" from="482087297" to="746946334#1"/>
    <trip id="veh231" type="veh_passenger" depart="506.05" departLane="best" from="635470783#1" to="646222788"/>
    <trip id="veh232" type="veh_passenger" depart="508.24" departLane="best" from="725810412" to="655492366#2"/>
    <trip id="veh233" type="veh_passenger" depart="510.43" departLane="best" from="479766702#3" to="-141463085"/>
    <trip id="veh234" type="veh_passenger" depart="512.63" departLane="best" from="478176274#2" to="652569821#1"/>
    <trip id="veh235" type="veh_passenger" depart="514.82" departLane="best" from="724251091" to="756412979#2"/>
    <trip id="veh236" type="veh_passenger" depart="517.01" departLane="best" from="481853590" to="652294509"/>
    <trip id="veh238" type="veh_passenger" depart="521.39" departLane="best" from="172367140#2" to="168243073#1"/>
    <trip id="veh239" type="veh_passenger" depart="523.58" departLane="best" from="528461129#0" to="-464811045#5"/>
    <trip id="veh240" type="veh_passenger" depart="525.77" departLane="best" from="46649279" to="644989632"/>
    <trip id="veh241" type="veh_passenger" depart="527.96" departLane="best" from="481636177" to="-784684253"/>
    <trip id="veh243" type="veh_passenger" depart="532.34" departLane="best" from="639724546" to="-453769185"/>
    <trip id="veh244" type="veh_passenger" depart="534.53" departLane="best" from="480755078#3" to="634163187"/>
    <trip id="veh246" type="veh_passenger" depart="538.91" departLane="best" from="-670138713" to="537127413"/>
    <trip id="veh247" type="veh_passenger" depart="541.10" departLane="best" from="-634197849#0" to="479552717#0"/>
    <trip id="veh248" type="veh_passenger" depart="543.30" departLane="best" from="161888201" to="454880868#0"/>
    <trip id="veh249" type="veh_passenger" depart="545.49" departLane="best" from="655620659" to="479552717#0"/>
    <trip id="veh250" type="veh_passenger" depart="547.68" departLane="best" from="654999305#0" to="712189867#1"/>
    <trip id="veh251" type="veh_passenger" depart="549.87" departLane="best" from="174778942#0" to="-644368064"/>
    <trip id="veh252" type="veh_passenger" depart="552.06" departLane="best" from="-34834806" to="632501544"/>
    <trip id="veh254" type="veh_passenger" depart="556.44" departLane="best" from="643736122" to="655809329"/>
    <trip id="veh255" type="veh_passenger" depart="558.63" departLane="best" from="643743411" to="654492805#0"/>
    <trip id="veh256" type="veh_passenger" depart="560.82" departLane="best" from="75414323" to="152592779#1"/>
    <trip id="veh257" type="veh_passenger" depart="563.01" departLane="best" from="-364448455#0" to="-728057205#0"/>
    <trip id="veh258" type="veh_passenger" depart="565.20" departLane="best" from="-646941140" to="644688272"/>
    <trip id="veh259" type="veh_passenger" depart="567.39" departLane="best" from="634216323" to="168241645#1"/>
    <trip id="veh260" type="veh_passenger" depart="569.58" departLane="best" from="646302487" to="655555611"/>
    <trip id="veh261" type="veh_passenger" depart="571.77" departLane="best" from="-853212630" to="637729506#0"/>
    <trip id="veh262" type="veh_passenger" depart="573.97" departLane="best" from="654722539" to="-646357705"/>
    <trip id="veh263" type="veh_passenger" depart="576.16" departLane="best" from="703869514#1" to="771534653"/>
    <trip id="veh265" type="veh_passenger" depart="580.54" departLane="best" from="423298562#1" to="644985955"/>
    <trip id="veh266" type="veh_passenger" depart="582.73" departLane="best" from="769564349#1" to="480683355"/>
    <trip id="veh267" type="veh_passenger" depart="584.92" departLane="best" from="646636679" to="-643465952#1"/>
    <trip id="veh268" type="veh_passenger" depart="587.11" departLane="best" from="-646226086" to="655644175"/>
    <trip id="veh269" type="veh_passenger" depart="589.30" departLane="best" from="721703576" to="636890827"/>
    <trip id="veh272" type="veh_passenger" depart="595.87" departLane="best" from="512870239#1" to="479379761"/>
    <trip id="veh273" type="veh_passenger" depart="598.06" departLane="best" from="573704885#0" to="46649285#1"/>
    <trip id="veh274" type="veh_passenger" depart="600.25" departLane="best" from="719654548" to="692905630"/>
    <trip id="veh275" type="veh_passenger" depart="602.44" departLane="best" from="-646265693#6" to="771221793"/>
    <trip id="veh276" type="veh_passenger" depart="604.64" departLane="best" from="640192015#1" to="709211145#1"/>
    <trip id="veh277" type="veh_passenger" depart="606.83" departLane="best" from="646363896" to="512870359#0"/>
    <trip id="veh279" type="veh_passenger" depart="611.21" departLane="best" from="22741311#1" to="669058220"/>
    <trip id="veh280" type="veh_passenger" depart="613.40" departLane="best" from="632841023" to="539675977#1"/>
    <trip id="veh281" type="veh_passenger" depart="615.59" departLane="best" from="528461129#0" to="647111142#1"/>
    <trip id="veh282" type="veh_passenger" depart="617.78" departLane="best" from="22694123" to="719067666"/>
    <trip id="veh284" type="veh_passenger" depart="622.16" departLane="best" from="744666005" to="173896171"/>
    <trip id="veh286" type="veh_passenger" depart="626.54" departLane="best" from="479616091" to="-464811045#2"/>
    <trip id="veh287" type="veh_passenger" depart="628.73" departLane="best" from="721703582" to="1091544309#0"/>
    <trip id="veh288" type="veh_passenger" depart="630.92" departLane="best" from="161888205#0" to="661086734#1"/>
    <trip id="veh289" type="veh_passenger" depart="633.11" departLane="best" from="476871421#0" to="741936991#1"/>
    <trip id="veh290" type="veh_passenger" depart="635.31" departLane="best" from="646317679" to="22955695#1"/>
    <trip id="veh291" type="veh_passenger" depart="637.50" departLane="best" from="-22278659" to="753845389"/>
    <trip id="veh292" type="veh_passenger" depart="639.69" departLane="best" from="-644994779#1" to="646432727"/>
    <trip id="veh293" type="veh_passenger" depart="641.88" departLane="best" from="540471748#1" to="654863060"/>
    <trip id="veh295" type="veh_passenger" depart="646.26" departLane="best" from="540515311" to="660099367"/>
    <trip id="veh296" type="veh_passenger" depart="648.45" departLane="best" from="-646200798" to="173166837"/>
    <trip id="veh297" type="veh_passenger" depart="650.64" departLane="best" from="646225242" to="333374585"/>
    <trip id="veh298" type="veh_passenger" depart="652.83" departLane="best" from="635287147#0" to="538861067#1"/>
    <trip id="veh299" type="veh_passenger" depart="655.02" departLane="best" from="632228201#0" to="481878541#2"/>
    <trip id="veh300" type="veh_passenger" depart="657.21" departLane="best" from="652569816" to="464822189#0"/>
    <trip id="veh301" type="veh_passenger" depart="659.40" departLane="best" from="646354884" to="22694132"/>
    <trip id="veh302" type="veh_passenger" depart="661.59" departLane="best" from="174552479-AddedOnRampEdge" to="-646401567"/>
    <trip id="veh303" type="veh_passenger" depart="663.78" departLane="best" from="125774788#1" to="-646376481"/>
    <trip id="veh305" type="veh_passenger" depart="668.17" departLane="best" from="121753261" to="167631162#2"/>
    <trip id="veh306" type="veh_passenger" depart="670.36" departLane="best" from="539777714" to="646723491"/>
    <trip id="veh307" type="veh_passenger" depart="672.55" departLane="best" from="803186285#3" to="619029857"/>
    <trip id="veh309" type="veh_passenger" depart="676.93" departLane="best" from="141428143#2" to="173166882#1"/>
    <trip id="veh312" type="veh_passenger" depart="683.50" departLane="best" departSpeed="max" from="800903534#0" to="633798162"/>
    <trip id="veh313" type="veh_passenger" depart="685.69" departLane="best" departSpeed="max" from="646270983" to="-646838285#0"/>
    <trip id="veh314" type="veh_passenger" depart="687.88" departLane="best" from="737674580" to="539777720"/>
    <trip id="veh315" type="veh_passenger" depart="690.07" departLane="best" from="738493728" to="634334941"/>
    <trip id="veh316" type="veh_passenger" depart="692.26" departLane="best" from="539342388" to="528461127#1"/>