<?xml version="1.0" encoding="UTF-8"?>

<!-- generated on 2022-10-05 18:42:33.677272 by osmWebWizard.py UNKNOWN
<configuration>
    <end value="3600"/>
    <fringe-factor value="5.0"/>
    <fringe-start-attributes value="departSpeed=&quot;max&quot;"/>
    <min-distance value="600.0"/>
    <net-file value="/usr/share/sumo/tools/2022-10-05-18-41-56/osm.net.xml"/>
    <period value="3.2860613929008275"/>
    <route-file value="/usr/share/sumo/tools/2022-10-05-18-41-56/osm.truck.rou.xml"/>
    <trip-attributes value="departLane=&quot;best&quot;"/>
    <output-trip-file value="/usr/share/sumo/tools/2022-10-05-18-41-56/osm.truck.trips.xml"/>
    <prefix value="truck"/>
    <validate value="True"/>
    <vclass value="truck"/>
    <vehicle-class value="truck"/>
</configuration>
-->

<!-- generated on 2022-10-05 18:42:32 by Eclipse SUMO duarouter Version 1.14.1
<configuration xmlns:xsi="http://www.w3.org/2001/XMLSchema-instance" xsi:noNamespaceSchemaLocation="http://sumo.dlr.de/xsd/duarouterConfiguration.xsd">

    <input>
        <net-file value="/usr/share/sumo/tools/2022-10-05-18-41-56/osm.net.xml"/>
        <route-files value="/usr/share/sumo/tools/2022-10-05-18-41-56/osm.truck.trips.xml"/>
    </input>

    <output>
        <output-file value="/usr/share/sumo/tools/2022-10-05-18-41-56/osm.truck.trips.xml.tmp"/>
        <alternatives-output value="NUL"/>
        <write-trips value="true"/>
    </output>

    <time>
        <begin value="0"/>
        <end value="3600"/>
    </time>

    <report>
        <no-warnings value="true"/>
        <ignore-errors value="true"/>
        <no-step-log value="true"/>
    </report>

</configuration>
-->

<routes xmlns:xsi="http://www.w3.org/2001/XMLSchema-instance" xsi:noNamespaceSchemaLocation="http://sumo.dlr.de/xsd/routes_file.xsd">
    <vType id="truck_truck" vClass="truck"/>
    <trip id="truck0" type="truck_truck" depart="0.00" departLane="best" departSpeed="max" from="124962709#0" to="-744611504"/>
    <trip id="truck1" type="truck_truck" depart="3.29" departLane="best" from="646234318" to="640257335"/>
    <trip id="truck2" type="truck_truck" depart="6.57" departLane="best" from="741879588" to="-635245736#0"/>
    <trip id="truck3" type="truck_truck" depart="9.86" departLane="best" departSpeed="max" from="465029234" to="-325897368"/>
    <trip id="truck4" type="truck_truck" depart="13.14" departLane="best" from="-743297325#0" to="533640820"/>
    <trip id="truck5" type="truck_truck" depart="16.43" departLane="best" from="-325897389" to="-675079025#0"/>
    <trip id="truck6" type="truck_truck" depart="19.72" departLane="best" from="639724559" to="540511467"/>
    <trip id="truck7" type="truck_truck" depart="23.00" departLane="best" from="-744914744" to="633787205#1"/>
    <trip id="truck9" type="truck_truck" depart="29.57" departLane="best" from="658251316#1" to="644331173#0"/>
    <trip id="truck10" type="truck_truck" depart="32.86" departLane="best" from="22694116#0" to="-646235286"/>
    <trip id="truck11" type="truck_truck" depart="36.15" departLane="best" from="771221794" to="22061429#1"/>
    <trip id="truck12" type="truck_truck" depart="39.43" departLane="best" from="-639892259" to="-639724508"/>
    <trip id="truck13" type="truck_truck" depart="42.72" departLane="best" from="713281270" to="634176027#0"/>
    <trip id="truck15" type="truck_truck" depart="49.29" departLane="best" from="539777720" to="800581105#2"/>
    <trip id="truck17" type="truck_truck" depart="55.86" departLane="best" from="675913205#0" to="635308713"/>
    <trip id="truck18" type="truck_truck" depart="59.15" departLane="best" from="718773746#1" to="632199741"/>
    <trip id="truck19" type="truck_truck" depart="62.44" departLane="best" from="644703960" to="-464811047"/>
    <trip id="truck20" type="truck_truck" depart="65.72" departLane="best" from="-747853378#0" to="157966055#2"/>
    <trip id="truck21" type="truck_truck" depart="69.01" departLane="best" from="-634310551" to="-747878619"/>
    <trip id="truck22" type="truck_truck" depart="72.29" departLane="best" from="-640209814#0" to="136810597#1"/>
    <trip id="truck23" type="truck_truck" depart="75.58" departLane="best" from="638466078" to="244362488#1"/>
    <trip id="truck24" type="truck_truck" depart="78.87" departLane="best" from="325897189#1" to="-713283677"/>
    <trip id="truck25" type="truck_truck" depart="82.15" departLane="best" from="639724524" to="634334945"/>
    <trip id="truck26" type="truck_truck" depart="85.44" departLane="best" from="-646705901" to="646198776"/>
    <trip id="truck27" type="truck_truck" depart="88.72" departLane="best" departSpeed="max" from="-646378520" to="325897389"/>
    <trip id="truck28" type="truck_truck" depart="92.01" departLane="best" departSpeed="max" from="94904694" to="638912261#1"/>
    <trip id="truck29" type="truck_truck" depart="95.30" departLane="best" from="581579789" to="641173367"/>
    <trip id="truck31" type="truck_truck" depart="101.87" departLane="best" from="173767658#1" to="121275835#2"/>
    <trip id="truck34" type="truck_truck" depart="111.73" departLane="best" from="639958454" to="40840643#0"/>
    <trip id="truck35" type="truck_truck" depart="115.01" departLane="best" from="746955002#1" to="479608888"/>
    <trip id="truck37" type="truck_truck" depart="121.58" departLane="best" from="594262561#1" to="109104573#0"/>
    <trip id="truck38" type="truck_truck" depart="124.87" departLane="best" from="633787204" to="741971457"/>
    <trip id="truck41" type="truck_truck" depart="134.73" departLane="best" from="-639724510" to="-464822279"/>
    <trip id="truck42" type="truck_truck" depart="138.01" departLane="best" from="-641173366#0" to="635757619"/>
    <trip id="truck43" type="truck_truck" depart="141.30" departLane="best" from="655152626" to="465029225"/>
    <trip id="truck44" type="truck_truck" depart="144.59" departLane="best" from="-540471750#1" to="34710317#1"/>
    <trip id="truck45" type="truck_truck" depart="147.87" departLane="best" from="96680725#2" to="539342409"/>
    <trip id="truck46" type="truck_truck" depart="151.16" departLane="best" from="800581105#0" to="718272018#1"/>
    <trip id="truck47" type="truck_truck" depart="154.44" departLane="best" from="-161420334" to="645163799"/>
    <trip id="truck48" type="truck_truck" depart="157.73" departLane="best" from="641556745#1" to="539777708"/>
    <trip id="truck49" type="truck_truck" depart="161.02" departLane="best" from="121762750#0" to="638933995"/>
    <trip id="truck50" type="truck_truck" depart="164.30" departLane="best" from="-643425332#0" to="476871421#1"/>
    <trip id="truck52" type="truck_truck" depart="170.88" departLane="best" from="725020907" to="1092006405"/>
    <trip id="truck53" type="truck_truck" depart="174.16" departLane="best" from="533637086" to="-646843904#1"/>
    <trip id="truck54" type="truck_truck" depart="177.45" departLane="best" from="746690575" to="719261731#1"/>
    <trip id="truck55" type="truck_truck" depart="180.73" departLane="best" from="161888195" to="638671931#1"/>
    <trip id="truck56" type="truck_truck" depart="184.02" departLane="best" from="634714988" to="-646225243"/>
    <trip id="truck57" type="truck_truck" depart="187.31" departLane="best" from="646808256" to="539777717#2"/>
    <trip id="truck58" type="truck_truck" depart="190.59" departLane="best" from="652027920" to="539348637"/>
    <trip id="truck59" type="truck_truck" depart="193.88" departLane="best" from="-103926113#1" to="173913043"/>
    <trip id="truck63" type="truck_truck" depart="207.02" departLane="best" from="726132478#0" to="753789416#0"/>
    <trip id="truck65" type="truck_truck" depart="213.59" departLane="best" from="-632238041" to="646625211"/>
    <trip id="truck67" type="truck_truck" depart="220.17" departLane="best" from="481669052" to="546406967"/>
    <trip id="truck68" type="truck_truck" depart="223.45" departLane="best" from="121275838" to="721703578#1"/>
    <trip id="truck70" type="truck_truck" depart="230.02" departLane="best" from="540471748#1" to="646200795"/>
    <trip id="truck71" type="truck_truck" depart="233.31" departLane="best" from="-691623138" to="173166855#1"/>
    <trip id="truck72" type="truck_truck" depart="236.60" departLane="best" from="96678446#1" to="639702164"/>
    <trip id="truck73" type="truck_truck" depart="239.88" departLane="best" from="478176272" to="538766103"/>
    <trip id="truck74" type="truck_truck" depart="243.17" departLane="best" from="-644423356" to="-745002851"/>
    <trip id="truck76" type="truck_truck" depart="249.74" departLane="best" from="-749841335" to="-741044563"/>
    <trip id="truck77" type="truck_truck" depart="253.03" departLane="best" from="-633788297" to="637363905"/>
    <trip id="truck78" type="truck_truck" depart="256.31" departLane="best" from="-747878619" to="744914738#1"/>
    <trip id="truck80" type="truck_truck" depart="262.88" departLane="best" from="-796834859" to="640191047"/>
    <trip id="truck81" type="truck_truck" depart="266.17" departLane="best" from="-728057204#2" to="-644696196"/>
    <trip id="truck84" type="truck_truck" depart="276.03" departLane="best" from="-640036780" to="46650499#5"/>
    <trip id="truck85" type="truck_truck" depart="279.32" departLane="best" from="465236679#0" to="480452668#1"/>
    <trip id="truck89" type="truck_truck" depart="292.46" departLane="best" from="718773746#1" to="-933719986#1"/>
    <trip id="truck90" type="truck_truck" depart="295.75" departLane="best" from="-669608621" to="479174860"/>
    <trip id="truck91" type="truck_truck" depart="299.03" departLane="best" departSpeed="max" from="465029234" to="140088088#1"/>
    <trip id="truck92" type="truck_truck" depart="302.32" departLane="best" from="-96680724" to="747351172"/>
    <trip id="truck93" type="truck_truck" depart="305.60" departLane="best" from="479168859" to="718294659"/>
    <trip id="truck94" type="truck_truck" depart="308.89" departLane="best" from="571466827#0" to="-465013248#1"/>
    <trip id="truck95" type="truck_truck" depart="312.18" departLane="best" from="795085928" to="747681286"/>
    <trip id="truck100" type="truck_truck" depart="328.61" departLane="best" from="121291660" to="652160524#1"/>
    <trip id="truck101" type="truck_truck" depart="331.89" departLane="best" from="479608893" to="465029227#2"/>
    <trip id="truck102" type="truck_truck" depart="335.18" departLane="best" from="771221795" to="96679202#1"/>
    <trip id="truck103" type="truck_truck" depart="338.46" departLane="best" from="573704876" to="645146055"/>
    <trip id="truck105" type="truck_truck" depart="345.04" departLane="best" from="793694969#1" to="632238577"/>
    <trip id="truck107" type="truck_truck" depart="351.61" departLane="best" from="-53014189" to="633262057"/>
    <trip id="truck108" type="truck_truck" depart="354.89" departLane="best" from="-646355782" to="771221802"/>
    <trip id="truck109" type="truck_truck" depart="358.18" departLane="best" from="-634317055#0" to="-664015156#0"/>
    <trip id="truck110" type="truck_truck" depart="361.47" departLane="best" departSpeed="max" from="634147926" to="640218631#0"/>
    <trip id="truck111" type="truck_truck" depart="364.75" departLane="best" from="-789763877" to="-643476109#1"/>
    <trip id="truck112" type="truck_truck" depart="368.04" departLane="best" from="738493728" to="-863022706"/>
    <trip id="truck113" type="truck_truck" depart="371.32" departLane="best" departSpeed="max" from="634147926" to="635376991"/>
    <trip id="truck114" type="truck_truck" depart="374.61" departLane="best" from="465029226#1" to="632841023"/>
    <trip id="truck115" type="truck_truck" depart="377.90" departLane="best" from="539342388" to="749841335"/>
    <trip id="truck116" type="truck_truck" depart="381.18" departLane="best" from="-709688611#1" to="644989632"/>
    <trip id="truck117" type="truck_truck" depart="384.47" departLane="best" from="-821550907" to="40840643#1"/>
    <trip id="truck118" type="truck_truck" depart="387.76" departLane="best" from="640232632#1" to="161972814"/>
    <trip id="truck119" type="truck_truck" depart="391.04" departLane="best" from="173767660#1" to="646363896"/>
    <trip id="truck120" type="truck_truck" depart="394.33" departLane="best" from="-633797118#1" to="479557961#1"/>
    <trip id="truck121" type="truck_truck" depart="397.61" departLane="best" from="97588112#1" to="96680725#1"/>
    <trip id="truck122" type="truck_truck" depart="400.90" departLane="best" from="-633798161" to="-718862555#0"/>
    <trip id="truck123" type="truck_truck" depart="404.19" departLane="best" from="121291660" to="74887696#1"/>
    <trip id="truck125" type="truck_truck" depart="410.76" departLane="best" from="323172626#1" to="-646267531"/>
    <trip id="truck127" type="truck_truck" depart="417.33" departLane="best" from="634934091" to="884457302"/>
    <trip id="truck128" type="truck_truck" depart="420.62" departLane="best" from="639934188" to="-124962708#0"/>
    <trip id="truck129" type="truck_truck" depart="423.90" departLane="best" from="665239442" to="161888205#1"/>
    <trip id="truck130" type="truck_truck" depart="427.19" departLane="best" from="640189039" to="75007298"/>
    <trip id="truck132" type="truck_truck" depart="433.76" departLane="best" from="-641104104" to="571466438#0"/>
    <trip id="truck133" type="truck_truck" depart="437.05" departLane="best" from="121897983" to="634197850"/>
    <trip id="truck134" type="truck_truck" depart="440.33" departLane="best" from="645146774" to="-681387406"/>
    <trip id="truck136" type="truck_truck" depart="446.90" departLane="best" from="512870351" to="744914737"/>
    <trip id="truck137" type="truck_truck" depart="450.19" departLane="best" from="712186289#0" to="-638469885#1"/>
    <trip id="truck138" type="truck_truck" depart="453.48" departLane="best" from="465236679#0" to="124962657#0"/>
    <trip id="truck139" type="truck_truck" depart="456.76" departLane="best" from="638679056#1" to="1084099105"/>
    <trip id="truck140" type="truck_truck" depart="460.05" departLane="best" from="646306221" to="55781211#1"/>
    <trip id="truck141" type="truck_truck" depart="463.33" departLane="best" from="46650497#1" to="-140088090#1"/>
    <trip id="truck143" type="truck_truck" depart="469.91" departLane="best" from="745327738" to="540515311"/>
    <trip id="truck145" type="truck_truck" depart="476.48" departLane="best" from="-646225243" to="-644368064"/>
    <trip id="truck146" type="truck_truck" depart="479.76" departLane="best" from="168243073#1" to="742063248"/>
    <trip id="truck147" type="truck_truck" depart="483.05" departLane="best" from="655627328" to="718272018#1"/>
    <trip id="truck148" type="truck_truck" depart="486.34" departLane="best" from="744657450" to="-718272015"/>
    <trip id="truck149" type="truck_truck" depart="489.62" departLane="best" from="-96679202#1" to="-640036780"/>
    <trip id="truck151" type="truck_truck" depart="496.20" departLane="best" from="464811044" to="635470894"/>
    <trip id="truck156" type="truck_truck" depart="512.63" departLane="best" from="660365109" to="120719658#3"/>
    <trip id="truck157" type="truck_truck" depart="515.91" departLane="best" from="654722539" to="-640209916"/>
    <trip id="truck158" type="truck_truck" depart="519.20" departLane="best" from="723128630" to="715266564"/>
    <trip id="truck159" type="truck_truck" depart="522.48" departLane="best" from="-745675205#1" to="660365109"/>
    <trip id="truck160" type="truck_truck" depart="525.77" departLane="best" from="480227676#0" to="167947915"/>
    <trip id="truck161" type="truck_truck" depart="529.06" departLane="best" from="655620659" to="-746654345#0"/>
    <trip id="truck162" type="truck_truck" depart="532.34" departLane="best" from="-325897279#0" to="-669608208"/>
    <trip id="truck163" type="truck_truck" depart="535.63" departLane="best" from="174778942#0" to="718773745"/>
    <trip id="truck164" type="truck_truck" depart="538.91" departLane="best" from="792090598#1" to="140088088#4"/>
    <trip id="truck165" type="truck_truck" depart="542.20" departLane="best" from="639270073" to="440207146#6"/>
    <trip id="truck166" type="truck_truck" depart="545.49" departLane="best" from="83999128#1" to="539777702"/>
    <trip id="truck168" type="truck_truck" depart="552.06" departLane="best" from="795133181#0" to="-646843904#1"/>
    <trip id="truck170" type="truck_truck" depart="558.63" departLane="best" from="646212921" to="173166902"/>
    <trip id="truck172" type="truck_truck" depart="565.20" departLane="best" from="370286048#1" to="632185764#0"/>
    <trip id="truck173" type="truck_truck" depart="568.49" departLane="best" from="104143839#0" to="644707460"/>
    <trip id="truck174" type="truck_truck" depart="571.77" departLane="best" from="-104143841#0" to="747396454"/>
    <trip id="truck175" type="truck_truck" depart="575.06" departLane="best" from="540281876" to="645146776#0"/>
    <trip id="truck177" type="truck_truck" depart="581.63" departLane="best" from="640190447" to="175052979#0"/>
    <trip id="truck179" type="truck_truck" depart="588.20" departLane="best" from="645163802" to="161972817"/>
    <trip id="truck180" type="truck_truck" depart="591.49" departLane="best" from="172367140#2" to="464810975"/>
    <trip id="truck181" type="truck_truck" depart="594.78" departLane="best" from="449392477" to="161647491#1"/>
    <trip id="truck184" type="truck_truck" depart="604.64" departLane="best" from="744983481#1" to="634991901#0"/>
    <trip id="truck185" type="truck_truck" depart="607.92" departLane="best" from="161972816#1" to="541940527"/>
    <trip id="truck186" type="truck_truck" depart="611.21" departLane="best" from="-1038616655#0" to="152633453#0"/>
    <trip id="truck188" type="truck_truck" depart="617.78" departLane="best" from="639936516" to="480306311"/>
    <trip id="truck190" type="truck_truck" depart="624.35" departLane="best" from="481636178#1" to="743315067"/>
    <trip id="truck191" type="truck_truck" depart="627.64" departLane="best" from="655627143" to="-646401568"/>
    <trip id="truck192" type="truck_truck" depart="630.92" departLane="best" from="638065597#1" to="201767823#3"/>
    <trip id="truck193" type="truck_truck" depart="634.21" departLane="best" from="665497412" to="646360511"/>
    <trip id="truck194" type="truck_truck" depart="637.50" departLane="best" from="640272635#0" to="-744989130#0"/>
    <trip id="truck195" type="truck_truck" depart="640.78" departLane="best" from="-681048409" to="-245003022#1"/>
    <trip id="truck196" type="truck_truck" depart="644.07" departLane="best" from="-933719986#1" to="481040664"/>
    <trip id="truck197" type="truck_truck" depart="647.35" departLane="best" from="713297269" to="-632263414"/>
    <trip id="truck199" type="truck_truck" depart="653.93" departLane="best" from="-674349182" to="644246721#1"/>
    <trip id="truck200" type="truck_truck" depart="657.21" departLane="best" from="527652004#1" to="-848070292"/>
    <trip id="truck201" type="truck_truck" depart="660.50" departLane="best" from="639996289#0" to="-121897407#0"/>
    <trip id="truck202" type="truck_truck" depart="663.78" departLane="best" from="646376481" to="646845766#1"/>
    <trip id="truck204" type="truck_truck" depart="670.36" departLane="best" from="-646889318#0" to="769564349#1"/>
    <trip id="truck205" type="truck_truck" depart="673.64" departLane="best" from="538767555#1" to="-465013245#1"/>
    <trip id="truck206" type="truck_truck" depart="676.93" departLane="best" from="-96678450" to="709272171"/>
    <trip id="truck207" type="truck_truck" depart="680.21" departLane="best" from="479612877#0" to="655628529#1"/>
    <trip id="truck208" type="truck_truck" depart="683.50" departLane="best" from="640209013" to="905360544#1"/>
    <trip id="truck209" type="truck_truck" depart="686.79" departLane="best" from="634148013" to="75414321#1"/>
    <trip id="truck210" type="truck_truck" depart="690.07" departLane="best" from="741789014" to="634714988"/>
    <trip id="truck211" type="truck_truck" depart="693.36" departLane="best" from="645163800" to="533637087"/>
    <trip id="truck212" type="truck_truck" depart="696.65" departLane="best" from="676779723#0" to="541940527"/>
    <trip id="truck213" type="truck_truck" depart="699.93" departLane="best" from="743315066" to="646273283"/>
    <trip id="truck214" type="truck_truck" depart="703.22" departLane="best" from="481669049" to="104145280#0"/>
    <trip id="truck215" type="truck_truck" depart="706.50" departLane="best" from="-96667082#1" to="638469885#0"/>
    <trip id="truck217" type="truck_truck" depart="713.08" departLane="best" from="637021041" to="121895652"/>
    <trip id="truck218" type="truck_truck" depart="716.36" departLane="best" from="-634151807" to="152592779#1"/>
    <trip id="truck219" type="truck_truck" depart="719.65" departLane="best" from="121895649#2" to="173767908#0"/>
    <trip id="truck221" type="truck_truck" depart="726.22" departLane="best" from="-750096867#1" to="643871967#0"/>
    <trip id="truck222" type="truck_truck" depart="729.51" departLane="best" from="644715220#0" to="-538769212#0"/>
    <trip id="truck223" type="truck_truck" depart="732.79" departLane="best" from="464811045#6" to="540282738"/>
    <trip id="truck225" type="truck_truck" depart="739.36" departLane="best" from="465029228#1" to="744913574"/>
    <trip id="truck226" type="truck_truck" depart="742.65" departLane="best" from="633618037#1" to="644126003"/>
    <trip id="truck227" type="truck_truck" depart="745.94" departLane="best" from="718272018#1" to="646759568"/>
    <trip id="truck228" type="truck_truck" depart="749.22" departLane="best" from="34834809#1" to="-124962618#1"/>
    <trip id="truck229" type="truck_truck" depart="752.51" departLane="best" departSpeed="max" from="23101287" to="646375831"/>
    <trip id="truck231" type="truck_truck" depart="759.08" departLane="best" from="465029226#0" to="646343302"/>
    <trip id="truck232" type="truck_truck" depart="762.37" departLane="best" from="546897405" to="634170243"/>
    <trip id="truck233" type="truck_truck" depart="765.65" departLane="best" from="-744914745#0" to="-734395585"/>
    <trip id="truck234" type="truck_truck" depart="768.94" departLane="best" from="478128201" to="-325897342"/>
    <trip id="truck235" type="truck_truck" depart="772.22" departLane="best" from="22278331#0" to="640346902#1"/>
    <trip id="truck236" type="truck_truck" depart="775.51" departLane="best" from="454001709" to="-646359634"/>
    <trip id="truck237" type="truck_truck" depart="778.80" departLane="best" from="480880466" to="-644368064"/>
    <trip id="truck238" type="truck_truck" depart="782.08" departLane="best" from="635722626" to="-325897263"/>
    <trip id="truck239" type="truck_truck" depart="785.37" departLane="best" from="438742633#0" to="594262559#0"/>
    <trip id="truck240" type="truck_truck" depart="788.65" departLane="best" from="-333374586" to="638982727"/>
    <trip id="truck241" type="truck_truck" depart="791.94" departLane="best" from="-645294871#3" to="479616086#1"/>
    <trip id="truck242" type="truck_truck" depart="795.23" departLane="best" from="-46650499#5" to="325897363"/>
    <trip id="truck243" type="truck_truck" depart="798.51" departLane="best" from="-726874954#1" to="174262747"/>
    <trip id="truck244" type="truck_truck" depart="801.80" departLane="best" from="646759567#1" to="325897363"/>
    <trip id="truck245" type="truck_truck" depart="805.09" departLane="best" from="646401213" to="671196146#0"/>
    <trip id="truck246" type="truck_truck" depart="808.37" departLane="best" from="-978390310" to="-634148645"/>
    <trip id="truck249" type="truck_truck" depart="818.23" departLane="best" from="639764668" to="651847257"/>
    <trip id="truck251" type="truck_truck" depart="824.80" departLane="best" from="756412978" to="-675335532"/>
    <trip id="truck252" type="truck_truck" depart="828.09" departLane="best" departSpeed="max" from="-243610857#1" to="-646225240"/>
    <trip id="truck254" type="truck_truck" depart="834.66" departLane="best" from="597117837" to="-728057204#2"/>
    <trip id="truck255" type="truck_truck" depart="837.95" departLane="best" from="644453335" to="646808261"/>
    <trip id="truck256" type="truck_truck" depart="841.23" departLane="best" from="-646623615#1" to="634232010#0"/>
    <trip id="truck257" type="truck_truck" depart="844.52" departLane="best" from="646360511" to="-641123574#1"/>
    <trip id="truck258" type="truck_truck" depart="847.80" departLane="best" from="666949183" to="782573476#0"/>
    <trip id="truck259" type="truck_truck" depart="851.09" departLane="best" from="-641123594" to="-323172626#1"/>
    <trip id="truck261" type="truck_truck" depart="857.66" departLane="best" from="771221799#0" to="423298562#4"/>
    <trip id="truck262" type="truck_truck" depart="860.95" departLane="best" from="644993742" to="-633797118#2"/>
    <trip id="truck264" type="truck_truck" depart="867.52" departLane="best" from="-640218247" to="646968173"/>
    <trip id="truck265" type="truck_truck" depart="870.81" departLane="best" from="713307718" to="634151261"/>
    <trip id="truck266" type="truck_truck" depart="874.09" departLane="best" from="-644423356" to="850329569#0"/>
    <trip id="truck268" type="truck_truck" depart="880.66" departLane="best" from="46650499#4" to="265150882#1"/>
    <trip id="truck270" type="truck_truck" depart="887.24" departLane="best" from="713297267" to="665232124#1"/>
    <trip id="truck271" type="truck_truck" depart="890.52" departLane="best" from="-640346903#0" to="771221802"/>
    <trip id="truck272" type="truck_truck" depart="893.81" departLane="best" from="638466078" to="669626727"/>
    <trip id="truck273" type="truck_truck" depart="897.09" departLane="best" departSpeed="max" from="644818284" to="477931747#1"/>
    <trip id="truck274" type="truck_truck" depart="900.38" departLane="best" from="646225242" to="784422645"/>
    <trip id="truck275" type="truck_truck" depart="903.67" departLane="best" from="121883645#1" to="656009378"/>
    <trip id="truck277" type="truck_truck" depart="910.24" departLane="best" from="478127210#1" to="646200801"/>
    <trip id="truck278" type="truck_truck" depart="913.53" departLane="best" from="676779723#1" to="-634934091"/>
    <trip id="truck279" type="truck_truck" depart="916.81" departLane="best" from="728057206" to="-847110738"/>
    <trip id="truck280" type="truck_truck" depart="920.10" departLane="best" from="480490553#1" to="634502263"/>
    <trip id="truck282" type="truck_truck" depart="926.67" departLane="best" from="713308947#1" to="-647095920"/>
    <trip id="truck283" type="truck_truck" depart="929.96" departLane="best" from="-726876427" to="655492363"/>
    <trip id="truck284" type="truck_truck" depart="933.24" departLane="best" from="22694116#0" to="725920131"/>
    <trip id="truck285" type="truck_truck" depart="936.53" departLane="best" from="644468170" to="124962625#1"/>
    <trip id="truck286" type="truck_truck" depart="939.81" departLane="best" from="-159677026" to="753845389"/>
    <trip id="truck288" type="truck_truck" depart="946.39" departLane="best" from="512870351" to="646402878"/>
    <trip id="truck289" type="truck_truck" depart="949.67" departLane="best" from="643871967#1" to="639396312#1"/>
    <trip id="truck290" type="truck_truck" depart="952.96" departLane="best" from="523609245#1" to="654736627"/>
    <trip id="truck291" type="truck_truck" depart="956.24" departLane="best" from="-639901585" to="-742167351#1"/>
    <trip id="truck292" type="truck_truck" depart="959.53" departLane="best" from="644123274" to="168241645#0"/>
    <trip id="truck293" type="truck_truck" depart="962.82" departLane="best" from="633312979" to="480893591"/>
    <trip id="truck296" type="truck_truck" depart="972.67" departLane="best" from="644688223" to="121854917"/>
    <trip id="truck297" type="truck_truck" depart="975.96" departLane="best" from="-96682374#1" to="-643763889"/>
    <trip id="truck298" type="truck_truck" depart="979.25" departLane="best" from="-671412022#1" to="-643465952#2"/>
    <trip id="truck299" type="truck_truck" depart="982.53" departLane="best" from="539777719#0" to="646647438#1"/>
    <trip id="truck300" type="truck_truck" depart="985.82" departLane="best" from="493592533" to="645294871#3"/>
    <trip id="truck301" type="truck_truck" depart="989.10" departLane="best" from="814873292" to="538842047"/>
    <trip id="truck302" type="truck_truck" depart="992.39" departLane="best" from="152301201#1" to="-639999881"/>
    <trip id="truck303" type="truck_truck" depart="995.68" departLane="best" from="-672857270" to="-746654339"/>
    <trip id="truck305" type="truck_truck" depart="1002.25" departLane="best" from="539777713" to="121895649#1"/>
    <trip id="truck306" type="truck_truck" depart="1005.53" departLane="best" from="802915853#0" to="571466438#1"/>
    <trip id="truck307" type="truck_truck" depart="1008.82" departLane="best" from="644421583" to="-644331173#1"/>
    <trip id="truck308" type="truck_truck" depart="1012.11" departLane="best" from="720086820#1" to="512870215"/>
    <trip id="truck309" type="truck_truck" depart="1015.39" departLane="best" from="723227622#0" to="631906139#1"/>
    <trip id="truck310" type="truck_truck" depart="1018.68" departLane="best" from="480893593#0" to="478167912"/>
    <trip id="truck311" type="truck_truck" depart="1021.97" departLane="best" from="-665234581" to="-465013304"/>
    <trip id="truck313" type="truck_truck" depart="1028.54" departLane="best" from="669050148" to="44584656"/>
    <trip id="truck314" type="truck_truck" depart="1031.82" departLane="best" from="-633802037#2" to="636890828"/>
    <trip id="truck315" type="truck_truck" depart="1035.11" departLane="best" from="-480677668#0" to="-646222171"/>
    <trip id="truck316" type="truck_truck" depart="1038.40" departLane="best" from="594262574#0" to="167631176#0"/>
    <trip id="truck317" type="truck_truck" depart="1041.68" departLane="best" from="96670625#3" to="-643425332#1"/>