<?xml version="1.0" encoding="UTF-8"?>

<!-- generated on 2022-10-05 18:42:37.942873 by osmWebWizard.py UNKNOWN
<configuration>
    <end value="3600"/>
    <fringe-factor value="5.0"/>
    <fringe-start-attributes value="departSpeed=&quot;max&quot;"/>
    <min-distance value="600.0"/>
    <net-file value="/usr/share/sumo/tools/2022-10-05-18-41-56/osm.net.xml"/>
    <period value="6.383955672365431"/>
    <route-file value="/usr/share/sumo/tools/2022-10-05-18-41-56/osm.bus.rou.xml"/>
    <trip-attributes value="departLane=&quot;best&quot;"/>
    <output-trip-file value="/usr/share/sumo/tools/2022-10-05-18-41-56/osm.bus.trips.xml"/>
    <prefix value="bus"/>
    <validate value="True"/>
    <vclass value="bus"/>
    <vehicle-class value="bus"/>
</configuration>
-->

<!-- generated on 2022-10-05 18:42:37 by Eclipse SUMO duarouter Version 1.14.1
<configuration xmlns:xsi="http://www.w3.org/2001/XMLSchema-instance" xsi:noNamespaceSchemaLocation="http://sumo.dlr.de/xsd/duarouterConfiguration.xsd">

    <input>
        <net-file value="/usr/share/sumo/tools/2022-10-05-18-41-56/osm.net.xml"/>
        <route-files value="/usr/share/sumo/tools/2022-10-05-18-41-56/osm.bus.trips.xml"/>
    </input>

    <output>
        <output-file value="/usr/share/sumo/tools/2022-10-05-18-41-56/osm.bus.trips.xml.tmp"/>
        <alternatives-output value="NUL"/>
        <write-trips value="true"/>
    </output>

    <time>
        <begin value="0"/>
        <end value="3600"/>
    </time>

    <report>
        <no-warnings value="true"/>
        <ignore-errors value="true"/>
        <no-step-log value="true"/>
    </report>

</configuration>
-->

<routes xmlns:xsi="http://www.w3.org/2001/XMLSchema-instance" xsi:noNamespaceSchemaLocation="http://sumo.dlr.de/xsd/routes_file.xsd">
    <vType id="bus_bus" vClass="bus"/>
    <trip id="bus0" type="bus_bus" depart="0.00" departLane="best" departSpeed="max" from="635716913" to="-22955696#1"/>
    <trip id="bus1" type="bus_bus" depart="6.38" departLane="best" from="-83999128#0" to="-670663820"/>
    <trip id="bus2" type="bus_bus" depart="12.77" departLane="best" from="646190975" to="640003511#1"/>
    <trip id="bus3" type="bus_bus" depart="19.15" departLane="best" departSpeed="max" from="737957634" to="-597117836"/>
    <trip id="bus4" type="bus_bus" depart="25.54" departLane="best" from="423298562#5" to="-325897189#1"/>
    <trip id="bus5" type="bus_bus" depart="31.92" departLane="best" from="-670128685" to="481671872#0"/>
    <trip id="bus6" type="bus_bus" depart="38.30" departLane="best" from="-325897189#1" to="-646841879#0"/>
    <trip id="bus7" type="bus_bus" depart="44.69" departLane="best" from="638065594" to="538769206#0"/>
    <trip id="bus9" type="bus_bus" depart="57.46" departLane="best" from="655788435" to="-124962625#1"/>
    <trip id="bus11" type="bus_bus" depart="70.22" departLane="best" from="168243073#0" to="-644703365#0"/>
    <trip id="bus12" type="bus_bus" depart="76.61" departLane="best" from="769563659#1" to="167942030#1"/>
    <trip id="bus13" type="bus_bus" depart="82.99" departLane="best" from="-633797118#4" to="-633798401"/>
    <trip id="bus14" type="bus_bus" depart="89.38" departLane="best" from="699029504" to="632927497#1"/>
    <trip id="bus15" type="bus_bus" depart="95.76" departLane="best" from="655783916#0" to="644990808"/>
    <trip id="bus17" type="bus_bus" depart="108.53" departLane="best" from="22955695#0" to="539342412"/>
    <trip id="bus18" type="bus_bus" depart="114.91" departLane="best" from="668585466" to="634148802"/>
    <trip id="bus19" type="bus_bus" depart="121.30" departLane="best" from="716028816" to="571801848"/>
    <trip id="bus20" type="bus_bus" depart="127.68" departLane="best" from="643869047" to="-464288918"/>
    <trip id="bus21" type="bus_bus" depart="134.06" departLane="best" from="-689828770#0" to="-96681930#3"/>
    <trip id="bus24" type="bus_bus" depart="153.21" departLane="best" from="635509438" to="176210035#0"/>
    <trip id="bus25" type="bus_bus" depart="159.60" departLane="best" from="-767765992" to="749728940#1"/>
    <trip id="bus27" type="bus_bus" depart="172.37" departLane="best" from="-646200799" to="22955695#1"/>
    <trip id="bus28" type="bus_bus" depart="178.75" departLane="best" from="933796745" to="635634276#0"/>
    <trip id="bus29" type="bus_bus" depart="185.13" departLane="best" from="539777716#3" to="640191058#1"/>
    <trip id="bus30" type="bus_bus" depart="191.52" departLane="best" from="690617296" to="646759567#1"/>
    <trip id="bus31" type="bus_bus" depart="197.90" departLane="best" from="152297192#0" to="-753789416#0"/>
    <trip id="bus32" type="bus_bus" depart="204.29" departLane="best" from="-665232124#0" to="750096866"/>
    <trip id="bus33" type="bus_bus" depart="210.67" departLane="best" from="723111440#0" to="141902223"/>
    <trip id="bus34" type="bus_bus" depart="217.05" departLane="best" from="638933996" to="25584252#1"/>
    <trip id="bus35" type="bus_bus" depart="223.44" departLane="best" from="746606874" to="46699693#0"/>
    <trip id="bus36" type="bus_bus" depart="229.82" departLane="best" from="-753845386" to="-726874954#0"/>
    <trip id="bus37" type="bus_bus" depart="236.21" departLane="best" from="540471750#1" to="-747878619"/>
    <trip id="bus38" type="bus_bus" depart="242.59" departLane="best" from="597117836" to="738258068#0"/>
    <trip id="bus39" type="bus_bus" depart="248.97" departLane="best" from="325024322" to="-669035705"/>
    <trip id="bus40" type="bus_bus" depart="255.36" departLane="best" from="96682373" to="481878541#2"/>
    <trip id="bus41" type="bus_bus" depart="261.74" departLane="best" from="-633788297" to="-464811032"/>
    <trip id="bus43" type="bus_bus" depart="274.51" departLane="best" from="652325355" to="399020767#0"/>
    <trip id="bus44" type="bus_bus" depart="280.89" departLane="best" from="-481669051" to="22964467"/>
    <trip id="bus45" type="bus_bus" depart="287.28" departLane="best" from="96680724" to="533640823#0"/>
    <trip id="bus46" type="bus_bus" depart="293.66" departLane="best" from="795119058#0" to="713297267"/>
    <trip id="bus47" type="bus_bus" depart="300.05" departLane="best" from="-161886032#0" to="644704139"/>
    <trip id="bus48" type="bus_bus" depart="306.43" departLane="best" from="640192015#1" to="537069590"/>
    <trip id="bus49" type="bus_bus" depart="312.81" departLane="best" from="-767412828#0" to="635647576#0"/>
    <trip id="bus50" type="bus_bus" depart="319.20" departLane="best" from="-638933996" to="452242289#1"/>
    <trip id="bus51" type="bus_bus" depart="325.58" departLane="best" from="46649285#1" to="756412979#1"/>
    <trip id="bus52" type="bus_bus" depart="331.97" departLane="best" from="723111437" to="-74863963#1"/>
    <trip id="bus53" type="bus_bus" depart="338.35" departLane="best" from="481669877#0" to="-646265693#5"/>
    <trip id="bus54" type="bus_bus" depart="344.73" departLane="best" from="74659025#1" to="718773746#0"/>
    <trip id="bus56" type="bus_bus" depart="357.50" departLane="best" from="633811499" to="-644454083#0"/>
    <trip id="bus58" type="bus_bus" depart="370.27" departLane="best" from="646968172" to="533652228"/>
    <trip id="bus59" type="bus_bus" depart="376.65" departLane="best" from="-103926113#1" to="159674807#1"/>
    <trip id="bus60" type="bus_bus" depart="383.04" departLane="best" from="-22061429#0" to="747398032"/>
    <trip id="bus61" type="bus_bus" depart="389.42" departLane="best" from="723227622#2" to="665461183"/>
    <trip id="bus62" type="bus_bus" depart="395.81" departLane="best" from="124962627#1" to="-467093549"/>
    <trip id="bus63" type="bus_bus" depart="402.19" departLane="best" from="723128631" to="75068665"/>
    <trip id="bus64" type="bus_bus" depart="408.57" departLane="best" from="-630389669" to="479612877#0"/>
    <trip id="bus65" type="bus_bus" depart="414.96" departLane="best" from="-533269493" to="646358019"/>
    <trip id="bus67" type="bus_bus" depart="427.73" departLane="best" from="479379761" to="539342394#1"/>
    <trip id="bus68" type="bus_bus" depart="434.11" departLane="best" from="-753845389" to="718809176"/>
    <trip id="bus69" type="bus_bus" depart="440.49" departLane="best" from="439740108" to="-661086734#0"/>
    <trip id="bus70" type="bus_bus" depart="446.88" departLane="best" from="538766137" to="644993743"/>
    <trip id="bus71" type="bus_bus" depart="453.26" departLane="best" from="96678446#0" to="637728288#1"/>
    <trip id="bus72" type="bus_bus" depart="459.64" departLane="best" from="464822189#0" to="512870353#1"/>
    <trip id="bus73" type="bus_bus" depart="466.03" departLane="best" from="-640093274" to="-671990771"/>
    <trip id="bus74" type="bus_bus" depart="472.41" departLane="best" from="167948883" to="597128680#0"/>
    <trip id="bus75" type="bus_bus" depart="478.80" departLane="best" from="-700851896" to="-669608621"/>
    <trip id="bus76" type="bus_bus" depart="485.18" departLane="best" from="-536908835" to="634721575"/>
    <trip id="bus77" type="bus_bus" depart="491.56" departLane="best" from="-691839260#0" to="743315066"/>
    <trip id="bus78" type="bus_bus" depart="497.95" departLane="best" from="715216211" to="-481848525#0"/>
    <trip id="bus79" type="bus_bus" depart="504.33" departLane="best" from="-718862557#1" to="639724546"/>
    <trip id="bus81" type="bus_bus" depart="517.10" departLane="best" from="75007281" to="546171775#0"/>
    <trip id="bus82" type="bus_bus" depart="523.48" departLane="best" from="479311923" to="647098888"/>
    <trip id="bus83" type="bus_bus" depart="529.87" departLane="best" from="655783917" to="-646401253"/>
    <trip id="bus84" type="bus_bus" depart="536.25" departLane="best" from="-634148008" to="44628859"/>
    <trip id="bus85" type="bus_bus" depart="542.64" departLane="best" from="440048516#1" to="478167915"/>
    <trip id="bus86" type="bus_bus" depart="549.02" departLane="best" from="645121341" to="639916521#1"/>
    <trip id="bus87" type="bus_bus" depart="555.40" departLane="best" from="852584633" to="-634138333"/>
    <trip id="bus88" type="bus_bus" depart="561.79" departLane="best" from="325897325" to="168242583#1"/>
    <trip id="bus89" type="bus_bus" depart="568.17" departLane="best" from="716028816" to="-728057205#0"/>
    <trip id="bus90" type="bus_bus" depart="574.56" departLane="best" from="-646647438#0" to="465013329#1"/>
    <trip id="bus91" type="bus_bus" depart="580.94" departLane="best" from="423298562#5" to="-83999128#0"/>
    <trip id="bus92" type="bus_bus" depart="587.32" departLane="best" from="-744611505" to="746981306"/>
    <trip id="bus93" type="bus_bus" depart="593.71" departLane="best" departSpeed="max" from="464985871#0" to="713297484"/>
    <trip id="bus94" type="bus_bus" depart="600.09" departLane="best" from="539428648" to="-464985740"/>
    <trip id="bus95" type="bus_bus" depart="606.48" departLane="best" from="977591344" to="669058220"/>
    <trip id="bus96" type="bus_bus" depart="612.86" departLane="best" from="792780569" to="747346339"/>
    <trip id="bus98" type="bus_bus" depart="625.63" departLane="best" from="479772182#1" to="-665232122"/>
    <trip id="bus99" type="bus_bus" depart="632.01" departLane="best" from="325897281" to="-478175607#1"/>
    <trip id="bus100" type="bus_bus" depart="638.40" departLane="best" from="22955696#0" to="853102671#1"/>
    <trip id="bus101" type="bus_bus" depart="644.78" departLane="best" from="-75394078" to="647096981"/>
    <trip id="bus102" type="bus_bus" depart="651.16" departLane="best" from="46650499#1" to="40840226#0"/>
    <trip id="bus103" type="bus_bus" depart="657.55" departLane="best" from="769563660#2" to="96678446#1"/>
    <trip id="bus104" type="bus_bus" depart="663.93" departLane="best" from="539777712#1" to="644642851"/>
    <trip id="bus106" type="bus_bus" depart="676.70" departLane="best" from="792747590" to="573272651#0"/>
    <trip id="bus107" type="bus_bus" depart="683.08" departLane="best" from="538769206#1" to="646223537"/>
    <trip id="bus108" type="bus_bus" depart="689.47" departLane="best" from="-479311923" to="584325686#1"/>
    <trip id="bus109" type="bus_bus" depart="695.85" departLane="best" from="481691269" to="701603698-AddedOffRampEdge"/>
    <trip id="bus112" type="bus_bus" depart="715.00" departLane="best" from="632237903#0" to="639996288"/>
    <trip id="bus113" type="bus_bus" depart="721.39" departLane="best" from="-718753055#0" to="-639568320#0"/>
    <trip id="bus114" type="bus_bus" depart="727.77" departLane="best" from="737200024#1" to="-726140665"/>
    <trip id="bus115" type="bus_bus" depart="734.15" departLane="best" from="632228201#0" to="634151261"/>
    <trip id="bus116" type="bus_bus" depart="740.54" departLane="best" from="402064195#0" to="584325680"/>
    <trip id="bus117" type="bus_bus" depart="746.92" departLane="best" from="-719250068" to="258769073#1"/>
    <trip id="bus118" type="bus_bus" depart="753.31" departLane="best" from="639974683" to="120106495#0"/>
    <trip id="bus119" type="bus_bus" depart="759.69" departLane="best" from="152301200" to="646230550"/>
    <trip id="bus120" type="bus_bus" depart="766.07" departLane="best" from="-536908922#2" to="46650504"/>
    <trip id="bus121" type="bus_bus" depart="772.46" departLane="best" from="975272028" to="96680724"/>
    <trip id="bus123" type="bus_bus" depart="785.23" departLane="best" from="-75394078" to="74859235#1"/>
    <trip id="bus124" type="bus_bus" depart="791.61" departLane="best" from="724890541" to="723111442"/>
    <trip id="bus126" type="bus_bus" depart="804.38" departLane="best" from="671196146#0" to="643476842#0"/>
    <trip id="bus127" type="bus_bus" depart="810.76" departLane="best" from="634102483" to="884457300#1"/>
    <trip id="bus128" type="bus_bus" depart="817.15" departLane="best" from="638671931#0" to="-124962708#0"/>
    <trip id="bus129" type="bus_bus" depart="823.53" departLane="best" from="658252510" to="111290122"/>
    <trip id="bus130" type="bus_bus" depart="829.91" departLane="best" from="639724504" to="75007271"/>
    <trip id="bus131" type="bus_bus" depart="836.30" departLane="best" from="-643243666" to="-638065525"/>
    <trip id="bus132" type="bus_bus" depart="842.68" departLane="best" from="-635661624" to="539382323#1"/>
    <trip id="bus133" type="bus_bus" depart="849.07" departLane="best" from="-792847944" to="633312979"/>
    <trip id="bus134" type="bus_bus" depart="855.45" departLane="best" from="644696487" to="-649418117"/>
    <trip id="bus135" type="bus_bus" depart="861.83" departLane="best" from="635376993" to="-74887696#0"/>
    <trip id="bus136" type="bus_bus" depart="868.22" departLane="best" from="480452669#1" to="743315066"/>
    <trip id="bus137" type="bus_bus" depart="874.60" departLane="best" from="694230198" to="-633270575"/>
    <trip id="bus138" type="bus_bus" depart="880.99" departLane="best" from="440048516#1" to="-796834861"/>
    <trip id="bus139" type="bus_bus" depart="887.37" departLane="best" from="635637195#1" to="-747857738"/>
    <trip id="bus142" type="bus_bus" depart="906.52" departLane="best" from="744666010" to="538769212#1"/>
    <trip id="bus143" type="bus_bus" depart="912.91" departLane="best" from="671442362" to="582540344"/>
    <trip id="bus145" type="bus_bus" depart="925.67" departLane="best" departSpeed="max" from="124962708#0" to="740100157"/>
    <trip id="bus146" type="bus_bus" depart="932.06" departLane="best" from="652569821#1" to="713297266"/>
    <trip id="bus147" type="bus_bus" depart="938.44" departLane="best" from="741976425" to="-656128847#0"/>
    <trip id="bus148" type="bus_bus" depart="944.83" departLane="best" from="-744600919" to="-634172677"/>
    <trip id="bus149" type="bus_bus" depart="951.21" departLane="best" from="647096981" to="725020906"/>
    <trip id="bus150" type="bus_bus" depart="957.59" departLane="best" from="333374585" to="634163187"/>
    <trip id="bus151" type="bus_bus" depart="963.98" departLane="best" from="-645146776#0" to="747862321#0"/>
    <trip id="bus152" type="bus_bus" depart="970.36" departLane="best" departSpeed="max" from="718294669" to="802915852#1"/>
    <trip id="bus153" type="bus_bus" depart="976.75" departLane="best" from="655809331" to="723227622#1"/>
    <trip id="bus155" type="bus_bus" depart="989.51" departLane="best" from="161888203#0" to="747965728"/>
    <trip id="bus156" type="bus_bus" depart="995.90" departLane="best" from="655492363" to="715215187"/>
    <trip id="bus157" type="bus_bus" depart="1002.28" departLane="best" from="655809331" to="-75061885"/>
    <trip id="bus158" type="bus_bus" depart="1008.66" departLane="best" from="651848007" to="-635245736#0"/>
    <trip id="bus159" type="bus_bus" depart="1015.05" departLane="best" from="719069648" to="712194508"/>
    <trip id="bus160" type="bus_bus" depart="1021.43" departLane="best" from="-675079025#0" to="656009377"/>
    <trip id="bus161" type="bus_bus" depart="1027.82" departLane="best" from="478123580" to="121883039#2"/>
    <trip id="bus162" type="bus_bus" depart="1034.20" departLane="best" from="652569816" to="-676759461#0"/>
    <trip id="bus163" type="bus_bus" depart="1040.58" departLane="best" from="-243610781#2" to="-646621120"/>
    <trip id="bus165" type="bus_bus" depart="1053.35" departLane="best" from="789763875" to="-847110738"/>
    <trip id="bus166" type="bus_bus" depart="1059.74" departLane="best" from="635748164" to="265150882#0"/>
    <trip id="bus168" type="bus_bus" depart="1072.50" departLane="best" from="795085928" to="-646265693#5"/>
    <trip id="bus170" type="bus_bus" depart="1085.27" departLane="best" from="-636851336" to="452242288#1"/>
    <trip id="bus171" type="bus_bus" depart="1091.66" departLane="best" from="644993743" to="141462462#1"/>
    <trip id="bus172" type="bus_bus" depart="1098.04" departLane="best" from="633797118#2" to="482272534#1"/>
    <trip id="bus173" type="bus_bus" depart="1104.42" departLane="best" from="241577556#4" to="571801846"/>
    <trip id="bus174" type="bus_bus" depart="1110.81" departLane="best" from="-746953936" to="644039287"/>
    <trip id="bus175" type="bus_bus" depart="1117.19" departLane="best" from="-104143841#1" to="747309126"/>
    <trip id="bus176" type="bus_bus" depart="1123.58" departLane="best" from="538766118#1" to="644693956"/>
    <trip id="bus177" type="bus_bus" depart="1129.96" departLane="best" from="646216727" to="639886396#1"/>
    <trip id="bus178" type="bus_bus" depart="1136.34" departLane="best" from="639724517" to="161888195"/>
    <trip id="bus179" type="bus_bus" depart="1142.73" departLane="best" from="141905627" to="691839259#0"/>
    <trip id="bus180" type="bus_bus" depart="1149.11" departLane="best" from="644707460" to="120106495#2"/>
    <trip id="bus181" type="bus_bus" depart="1155.50" departLane="best" departSpeed="max" from="124962709#0" to="325897389"/>
    <trip id="bus182" type="bus_bus" depart="1161.88" departLane="best" from="325897324#1" to="1062494947"/>
    <trip id="bus183" type="bus_bus" depart="1168.26" departLane="best" from="-640275099" to="383445417"/>
    <trip id="bus184" type="bus_bus" depart="1174.65" departLane="best" from="75044393#0" to="640006277#0"/>
    <trip id="bus186" type="bus_bus" depart="1187.42" departLane="best" from="121762749#1" to="538861067#1"/>
    <trip id="bus188" type="bus_bus" depart="1200.18" departLane="best" from="638900171#0" to="478124387#2"/>
    <trip id="bus189" type="bus_bus" depart="1206.57" departLane="best" from="464985775" to="-665232122"/>
    <trip id="bus190" type="bus_bus" depart="1212.95" departLane="best" from="479342452#0" to="741936991#1"/>
    <trip id="bus191" type="bus_bus" depart="1219.34" departLane="best" from="652569820" to="-646205381"/>
    <trip id="bus192" type="bus_bus" depart="1225.72" departLane="best" from="-597166205#1" to="512870222#0"/>
    <trip id="bus193" type="bus_bus" depart="1232.10" departLane="best" from="635308713" to="167293153#0"/>
    <trip id="bus194" type="bus_bus" depart="1238.49" departLane="best" from="660096622" to="646226088"/>
    <trip id="bus197" type="bus_bus" depart="1257.64" departLane="best" from="-728057204#3" to="479305356#1"/>
    <trip id="bus198" type="bus_bus" depart="1264.02" departLane="best" from="705092190#0" to="-53014188#0"/>
    <trip id="bus199" type="bus_bus" depart="1270.41" departLane="best" departSpeed="max" from="37354404" to="634515830"/>
    <trip id="bus200" type="bus_bus" depart="1276.79" departLane="best" from="-646841879#1" to="641123574#2"/>
    <trip id="bus202" type="bus_bus" depart="1289.56" departLane="best" from="638946001#1" to="-121897407#1"/>
    <trip id="bus204" type="bus_bus" depart="1302.33" departLane="best" from="-635647576#0" to="425241726#0"/>
    <trip id="bus206" type="bus_bus" depart="1315.09" departLane="best" from="527652003#1" to="-464985734"/>
    <trip id="bus207" type="bus_bus" depart="1321.48" departLane="best" from="-743307368#0" to="691839259#1"/>
    <trip id="bus208" type="bus_bus" depart="1327.86" departLane="best" from="466551639" to="654733270"/>
    <trip id="bus209" type="bus_bus" depart="1334.25" departLane="best" from="639886488#0" to="884457302"/>
    <trip id="bus210" type="bus_bus" depart="1340.63" departLane="best" from="632256138" to="753790653"/>
    <trip id="bus212" type="bus_bus" depart="1353.40" departLane="best" from="644707457" to="481671868"/>
    <trip id="bus213" type="bus_bus" depart="1359.78" departLane="best" from="669058220" to="538861067#1"/>
    <trip id="bus214" type="bus_bus" depart="1366.17" departLane="best" from="741895732#1" to="646203554"/>
    <trip id="bus215" type="bus_bus" depart="1372.55" departLane="best" from="479371791" to="-747303085"/>
    <trip id="bus216" type="bus_bus" depart="1378.93" departLane="best" from="-741979379#0" to="635376993"/>
    <trip id="bus218" type="bus_bus" depart="1391.70" departLane="best" from="634705636" to="-792780566"/>
    <trip id="bus219" type="bus_bus" depart="1398.09" departLane="best" from="-539676360#1" to="-96667082#0"/>
    <trip id="bus220" type="bus_bus" depart="1404.47" departLane="best" from="-792825329" to="152628979"/>
    <trip id="bus224" type="bus_bus" depart="1430.01" departLane="best" from="380519864#1" to="-652569819#0"/>
    <trip id="bus225" type="bus_bus" depart="1436.39" departLane="best" from="40840226#2" to="743297324"/>
    <trip id="bus226" type="bus_bus" depart="1442.77" departLane="best" from="596709790#1" to="641104111"/>
    <trip id="bus227" type="bus_bus" depart="1449.16" departLane="best" from="713297484" to="646378520"/>
    <trip id="bus228" type="bus_bus" depart="1455.54" departLane="best" from="22964462#1" to="-124962620#0"/>
    <trip id="bus229" type="bus_bus" depart="1461.93" departLane="best" from="173767971#0" to="646265693#0"/>
    <trip id="bus230" type="bus_bus" depart="1468.31" departLane="best" from="712189769" to="75489391"/>
    <trip id="bus231" type="bus_bus" depart="1474.69" departLane="best" from="399020767#0" to="646222788"/>
    <trip id="bus232" type="bus_bus" depart="1481.08" departLane="best" from="539342394#1" to="632834646#0"/>
    <trip id="bus233" type="bus_bus" depart="1487.46" departLane="best" from="-671420482" to="-669036662#0"/>
    <trip id="bus234" type="bus_bus" depart="1493.85" departLane="best" from="464811045#6" to="-323172626#0"/>
    <trip id="bus235" type="bus_bus" depart="1500.23" departLane="best" from="167631176#0" to="640067986"/>
    <trip id="bus236" type="bus_bus" depart="1506.61" departLane="best" from="325897347#4" to="-646188884"/>
    <trip id="bus237" type="bus_bus" depart="1513.00" departLane="best" from="478949969" to="-640173922#0"/>
    <trip id="bus239" type="bus_bus" depart="1525.77" departLane="best" from="262819996" to="540282741"/>
    <trip id="bus240" type="bus_bus" depart="1532.15" departLane="best" from="-325897261" to="635722626"/>
    <trip id="bus241" type="bus_bus" depart="1538.53" departLane="best" from="-643425332#2" to="477931747#0"/>
    <trip id="bus242" type="bus_bus" depart="1544.92" departLane="best" from="-465013329#1" to="22945259#1"/>
    <trip id="bus243" type="bus_bus" depart="1551.30" departLane="best" from="-665236517" to="160182336#1"/>
    <trip id="bus244" type="bus_bus" depart="1557.69" departLane="best" from="646370160" to="22945259#1"/>
    <trip id="bus246" type="bus_bus" depart="1570.45" departLane="best" from="-745349346#1" to="-539777716#3"/>
    <trip id="bus249" type="bus_bus" depart="1589.60" departLane="best" from="638065597#1" to="646889318#0"/>
    <trip id="bus250" type="bus_bus" depart="1595.99" departLane="best" from="638456456#2" to="646265693#4"/>
    <trip id="bus251" type="bus_bus" depart="1602.37" departLane="best" from="75394080#1" to="-646844093"/>
    <trip id="bus253" type="bus_bus" depart="1615.14" departLane="best" from="-640218649" to="639724554"/>
    <trip id="bus254" type="bus_bus" depart="1621.52" departLane="best" from="540527324" to="-667183796"/>
    <trip id="bus255" type="bus_bus" depart="1627.91" departLane="best" from="643465952#1" to="646399312"/>
    <trip id="bus256" type="bus_bus" depart="1634.29" departLane="best" from="-646223537" to="633590337"/>
    <trip id="bus257" type="bus_bus" depart="1640.68" departLane="best" from="646230550" to="-638056038"/>
    <trip id="bus259" type="bus_bus" depart="1653.44" departLane="best" from="-636821856" to="-22964470#1"/>
    <trip id="bus260" type="bus_bus" depart="1659.83" departLane="best" from="140088090#0" to="640006277#0"/>
    <trip id="bus261" type="bus_bus" depart="1666.21" departLane="best" from="769564349#1" to="262819989#0"/>
    <trip id="bus262" type="bus_bus" depart="1672.60" departLane="best" from="644468170" to="-536908842"/>
    <trip id="bus263" type="bus_bus" depart="1678.98" departLane="best" from="-634707164#0" to="646645333#1"/>
    <trip id="bus265" type="bus_bus" depart="1691.75" departLane="best" from="-640093274" to="847163977#1"/>
    <trip id="bus266" type="bus_bus" depart="1698.13" departLane="best" from="649129650" to="173767658#1"/>
    <trip id="bus268" type="bus_bus" depart="1710.90" departLane="best" from="482087297" to="172367140#1"/>
    <trip id="bus269" type="bus_bus" depart="1717.28" departLane="best" from="703869514#1" to="658399632"/>
    <trip id="bus270" type="bus_bus" depart="1723.67" departLane="best" from="-635470783#1" to="771221793"/>
    <trip id="bus271" type="bus_bus" depart="1730.05" departLane="best" from="635509436" to="664015160"/>
    <trip id="bus272" type="bus_bus" depart="1736.44" departLane="best" from="644246722" to="453769186#0"/>
    <trip id="bus273" type="bus_bus" depart="1742.82" departLane="best" from="645294871#0" to="773719744#0"/>
    <trip id="bus274" type="bus_bus" depart="1749.20" departLane="best" from="-789763875" to="655555611"/>
    <trip id="bus275" type="bus_bus" depart="1755.59" departLane="best" from="538766115#1" to="479557960#1"/>
    <trip id="bus276" type="bus_bus" depart="1761.97" departLane="best" from="464811045#4" to="645144921"/>
    <trip id="bus277" type="bus_bus" depart="1768.36" departLane="best" from="-784097100#0" to="698713731#1"/>
    <trip id="bus278" type="bus_bus" depart="1774.74" departLane="best" from="669626727" to="-596709792#1"/>
    <trip id="bus280" type="bus_bus" depart="1787.51" departLane="best" from="478176271" to="633792360#1"/>
    <trip id="bus281" type="bus_bus" depart="1793.89" departLane="best" from="22955696#0" to="-258769076#1"/>
    <trip id="bus282" type="bus_bus" depart="1800.28" departLane="best" from="709278316#1" to="-646310469"/>
    <trip id="bus283" type="bus_bus" depart="1806.66" departLane="best" from="-665237520" to="652543331#1"/>
    <trip id="bus284" type="bus_bus" depart="1813.04" departLane="best" from="168243073#1" to="723111445#2"/>
    <trip id="bus285" type="bus_bus" depart="1819.43" departLane="best" from="643739805#0" to="-792847948"/>
    <trip id="bus286" type="bus_bus" depart="1825.81" departLane="best" from="-159684830#1" to="752932862"/>
    <trip id="bus287" type="bus_bus" depart="1832.20" departLane="best" from="-630389669" to="644703365#0"/>
    <trip id="bus288" type="bus_bus" depart="1838.58" departLane="best" from="480452669#1" to="646322441#1"/>
    <trip id="bus289" type="bus_bus" depart="1844.96" departLane="best" from="641072897" to="636851336"/>
    <trip id="bus290" type="bus_bus" depart="1851.35" departLane="best" from="480683355" to="652039690"/>
    <trip id="bus291" type="bus_bus" depart="1857.73" departLane="best" from="-633798161" to="-669886911"/>
    <trip id="bus293" type="bus_bus" depart="1870.50" departLane="best" from="594262559#0" to="479169594#2"/>
    <trip id="bus294" type="bus_bus" depart="1876.88" departLane="best" from="536908939" to="438742633#0"/>
    <trip id="bus295" type="bus_bus" depart="1883.27" departLane="best" from="646225241" to="161888199"/>
    <trip id="bus296" type="bus_bus" depart="1889.65" departLane="best" from="643790534#1" to="-771213622"/>
    <trip id="bus297" type="bus_bus" depart="1896.03" departLane="best" from="-745314048" to="-639724510"/>
    <trip id="bus298" type="bus_bus" depart="1902.42" departLane="best" from="-646808254" to="-639563736"/>
    <trip id="bus299" type="bus_bus" depart="1908.80" departLane="best" from="537143052#0" to="646359833"/>
    <trip id="bus301" type="bus_bus" depart="1921.57" departLane="best" from="479619180#1" to="644876771#0"/>
    <trip id="bus303" type="bus_bus" depart="1934.34" departLane="best" from="-96667538#1" to="-634145205#2"/>
    <trip id="bus304" type="bus_bus" depart="1940.72" departLane="best" from="-646840176" to="-676745541"/>
    <trip id="bus305" type="bus_bus" depart="1947.11" departLane="best" from="-646356982" to="-161416406"/>
    <trip id="bus306" type="bus_bus" depart="1953.49" departLane="best" departSpeed="max" from="537127400" to="-792090598#0"/>
    <trip id="bus308" type="bus_bus" depart="1966.26" departLane="best" from="718787013#1" to="480424615"/>
    <trip id="bus309" type="bus_bus" depart="1972.64" departLane="best" from="719080516" to="571466434"/>